version 2
run WithChannelSwitching-0-20241030-23:16:00-15088
attr configname WithChannelSwitching
attr datetime 20241030-23:16:00
attr experiment WithChannelSwitching
attr inifile omnetpp.ini
attr iterationvars ""
attr iterationvarsf ""
attr measurement ""
attr network AaucphScenario
attr processid 15088
attr repetition 0
attr replication #0
attr resultdir results
attr runnumber 0
attr seedset 0
param *.**.nic.mac1609_4.useServiceChannel true
param *.node[*].appl.dataOnSch true
param *.rsu[*].appl.dataOnSch true
param *.playgroundSizeX 3000m
param *.playgroundSizeY 3000m
param *.playgroundSizeZ 50m
param *.annotations.draw true
param *.obstacles.obstacles "xmldoc(\"config.xml\", \"//AnalogueModel[@type='SimpleObstacleShadowing']/obstacles\")"
param *.manager.updateInterval 1s
param *.manager.host "\"localhost\""
param *.manager.port 9999
param *.manager.autoShutdown true
param *.manager.launchConfig "xmldoc(\"aaucph.launchd.xml\")"
param *.rsu[0].mobility.x 2000
param *.rsu[0].mobility.y 2000
param *.rsu[0].mobility.z 3
param *.rsu[*].applType "\"TraCIDemoRSU11p\""
param *.rsu[*].appl.headerLength "80 bit"
param *.rsu[*].appl.sendBeacons false
param *.rsu[*].appl.dataOnSch false
param *.rsu[*].appl.beaconInterval 1s
param *.rsu[*].appl.beaconUserPriority 7
param *.rsu[*].appl.dataUserPriority 5
param *.rsu[*].nic.phy80211p.antennaOffsetZ "0 m"
param *.connectionManager.sendDirect true
param *.connectionManager.maxInterfDist 2600m
param *.connectionManager.drawMaxIntfDist false
param *.**.nic.mac1609_4.useServiceChannel false
param *.**.nic.mac1609_4.txPower 20mW
param *.**.nic.mac1609_4.bitrate 6Mbps
param *.**.nic.phy80211p.minPowerLevel -110dBm
param *.**.nic.phy80211p.useNoiseFloor true
param *.**.nic.phy80211p.noiseFloor -98dBm
param *.**.nic.phy80211p.decider "xmldoc(\"config.xml\")"
param *.**.nic.phy80211p.analogueModels "xmldoc(\"config.xml\")"
param *.**.nic.phy80211p.usePropagationDelay true
param *.**.nic.phy80211p.antenna "xmldoc(\"antenna.xml\", \"/root/Antenna[@id='monopole']\")"
param *.node[*].nic.phy80211p.antennaOffsetY "0 m"
param *.node[*].nic.phy80211p.antennaOffsetZ "1.895 m"
param *.node[*].applType "\"TraCIDemo11p\""
param *.node[*].appl.headerLength "80 bit"
param *.node[*].appl.sendBeacons false
param *.node[*].appl.dataOnSch false
param *.node[*].appl.beaconInterval 1s
param *.node[*].veinsmobility.x 0
param *.node[*].veinsmobility.y 0
param *.node[*].veinsmobility.z 0
param *.node[*].veinsmobility.setHostSpeed false
param *.node[*0].veinsmobility.accidentCount 1
param *.node[*0].veinsmobility.accidentStart 73s
param *.node[*0].veinsmobility.accidentDuration 50s

vector 0 AaucphScenario.node[0].veinsmobility posx ETV
vector 1 AaucphScenario.node[0].veinsmobility posy ETV
vector 2 AaucphScenario.node[0].veinsmobility speed ETV
vector 3 AaucphScenario.node[0].veinsmobility acceleration ETV
vector 4 AaucphScenario.node[0].veinsmobility co2emission ETV
vector 5 AaucphScenario.node[1].veinsmobility posx ETV
vector 6 AaucphScenario.node[1].veinsmobility posy ETV
vector 7 AaucphScenario.node[1].veinsmobility speed ETV
vector 8 AaucphScenario.node[1].veinsmobility acceleration ETV
vector 9 AaucphScenario.node[1].veinsmobility co2emission ETV
vector 10 AaucphScenario.node[2].veinsmobility posx ETV
vector 11 AaucphScenario.node[2].veinsmobility posy ETV
vector 12 AaucphScenario.node[2].veinsmobility speed ETV
vector 13 AaucphScenario.node[2].veinsmobility acceleration ETV
vector 14 AaucphScenario.node[2].veinsmobility co2emission ETV
vector 15 AaucphScenario.node[3].veinsmobility posx ETV
vector 16 AaucphScenario.node[3].veinsmobility posy ETV
vector 17 AaucphScenario.node[3].veinsmobility speed ETV
vector 18 AaucphScenario.node[3].veinsmobility acceleration ETV
vector 19 AaucphScenario.node[3].veinsmobility co2emission ETV
vector 20 AaucphScenario.node[4].veinsmobility posx ETV
vector 21 AaucphScenario.node[4].veinsmobility posy ETV
vector 22 AaucphScenario.node[4].veinsmobility speed ETV
vector 23 AaucphScenario.node[4].veinsmobility acceleration ETV
vector 24 AaucphScenario.node[4].veinsmobility co2emission ETV
vector 25 AaucphScenario.node[5].veinsmobility posx ETV
vector 26 AaucphScenario.node[5].veinsmobility posy ETV
vector 27 AaucphScenario.node[5].veinsmobility speed ETV
vector 28 AaucphScenario.node[5].veinsmobility acceleration ETV
vector 29 AaucphScenario.node[5].veinsmobility co2emission ETV
vector 30 AaucphScenario.node[6].veinsmobility posx ETV
vector 31 AaucphScenario.node[6].veinsmobility posy ETV
vector 32 AaucphScenario.node[6].veinsmobility speed ETV
vector 33 AaucphScenario.node[6].veinsmobility acceleration ETV
vector 34 AaucphScenario.node[6].veinsmobility co2emission ETV
vector 35 AaucphScenario.node[7].veinsmobility posx ETV
vector 36 AaucphScenario.node[7].veinsmobility posy ETV
vector 37 AaucphScenario.node[7].veinsmobility speed ETV
vector 38 AaucphScenario.node[7].veinsmobility acceleration ETV
vector 39 AaucphScenario.node[7].veinsmobility co2emission ETV
vector 40 AaucphScenario.node[8].veinsmobility posx ETV
vector 41 AaucphScenario.node[8].veinsmobility posy ETV
vector 42 AaucphScenario.node[8].veinsmobility speed ETV
vector 43 AaucphScenario.node[8].veinsmobility acceleration ETV
vector 44 AaucphScenario.node[8].veinsmobility co2emission ETV
vector 45 AaucphScenario.node[9].veinsmobility posx ETV
vector 46 AaucphScenario.node[9].veinsmobility posy ETV
vector 47 AaucphScenario.node[9].veinsmobility speed ETV
vector 48 AaucphScenario.node[9].veinsmobility acceleration ETV
vector 49 AaucphScenario.node[9].veinsmobility co2emission ETV
vector 50 AaucphScenario.node[10].veinsmobility posx ETV
vector 51 AaucphScenario.node[10].veinsmobility posy ETV
vector 52 AaucphScenario.node[10].veinsmobility speed ETV
vector 53 AaucphScenario.node[10].veinsmobility acceleration ETV
vector 54 AaucphScenario.node[10].veinsmobility co2emission ETV
vector 55 AaucphScenario.node[11].veinsmobility posx ETV
vector 56 AaucphScenario.node[11].veinsmobility posy ETV
vector 57 AaucphScenario.node[11].veinsmobility speed ETV
vector 58 AaucphScenario.node[11].veinsmobility acceleration ETV
vector 59 AaucphScenario.node[11].veinsmobility co2emission ETV
vector 60 AaucphScenario.node[12].veinsmobility posx ETV
vector 61 AaucphScenario.node[12].veinsmobility posy ETV
vector 62 AaucphScenario.node[12].veinsmobility speed ETV
vector 63 AaucphScenario.node[12].veinsmobility acceleration ETV
vector 64 AaucphScenario.node[12].veinsmobility co2emission ETV
vector 65 AaucphScenario.node[13].veinsmobility posx ETV
vector 66 AaucphScenario.node[13].veinsmobility posy ETV
vector 67 AaucphScenario.node[13].veinsmobility speed ETV
vector 68 AaucphScenario.node[13].veinsmobility acceleration ETV
vector 69 AaucphScenario.node[13].veinsmobility co2emission ETV
vector 70 AaucphScenario.node[14].veinsmobility posx ETV
vector 71 AaucphScenario.node[14].veinsmobility posy ETV
vector 72 AaucphScenario.node[14].veinsmobility speed ETV
vector 73 AaucphScenario.node[14].veinsmobility acceleration ETV
vector 74 AaucphScenario.node[14].veinsmobility co2emission ETV
vector 75 AaucphScenario.node[15].veinsmobility posx ETV
vector 76 AaucphScenario.node[15].veinsmobility posy ETV
vector 77 AaucphScenario.node[15].veinsmobility speed ETV
vector 78 AaucphScenario.node[15].veinsmobility acceleration ETV
vector 79 AaucphScenario.node[15].veinsmobility co2emission ETV
vector 80 AaucphScenario.node[16].veinsmobility posx ETV
vector 81 AaucphScenario.node[16].veinsmobility posy ETV
vector 82 AaucphScenario.node[16].veinsmobility speed ETV
vector 83 AaucphScenario.node[16].veinsmobility acceleration ETV
vector 84 AaucphScenario.node[16].veinsmobility co2emission ETV
49	14050	93	2.2880007948552
49	14271	94	1.8778678366237
49	14492	95	2.1878268054598
49	14713	96	1.9349109188463
49	14934	97	2.257690420774
49	15155	98	1.8275235210854
49	15376	99	2.2171637627407
49	15597	100	1.9364396528528
49	15818	101	1.9308286385913
49	16058	102	2.0795318536334
49	16299	103	2.024615456828
49	16540	104	1.9266351485974
49	16781	105	2.4546407000376
49	17022	106	1.6168712690865
49	17263	107	2.2818091024916
49	17504	108	2.0883427132539
49	17745	109	2.1898228887289
49	17986	110	1.8055320039375
49	18227	111	2.1267705701263
49	18557	112	2.1596914405177
49	19032	113	2.0286448299197
49	19579	114	2.0991720047253
49	19840	115	1.7244314704199
49	20101	116	2.1309455204594
49	20362	117	2.1654211517387
49	20623	118	2.1273401725644
49	20884	119	1.9323642203833
49	21145	120	2.0420343943897
49	21406	121	2.136262850979
49	21686	122	1.8519180286493
49	21967	123	2.1790814186387
49	22249	124	1.843341584752
49	22530	125	2.1210459378475
49	22811	126	2.2358078981854
49	23092	127	1.8492026241662
49	23373	128	2.0427850317482
49	23654	129	1.8804637175221
49	23935	130	2.1477101691445
49	24216	131	1.9115560788648
49	24516	132	2.0029925700834
49	24817	133	2.3687124764681
49	25118	134	1.7424017582876
49	25419	135	2.3201030690394
49	25720	136	1.8666963974278
49	26021	137	2.0427523272964
49	26322	138	0.973
49	26623	139	0.973
49	26924	140	6.3895159609759
49	27225	141	6.9489627751703
49	27526	142	7.5001396351188
49	27827	143	7.1510054256227
49	28128	144	2.1475508918259
49	28429	145	2.0194594858201
49	28730	146	0.973
49	29031	147	0.973
49	29332	148	0.973
49	29633	149	6.0913169939309
49	29934	150	7.4633769369215
49	30235	151	8.0300522137341
49	30555	152	9.9096196731547
49	30876	153	10.289905092091
49	31197	154	2.514709475436
49	31518	155	2.7204174075697
49	31839	156	2.1628178254034
49	32160	157	2.8582228404329
49	32481	158	2.3584839783404
49	32802	159	2.3247462782638
49	33123	160	2.1840948509859
49	33444	161	2.4874086219835
49	33784	162	2.7738783171868
49	34125	163	2.4237964146113
49	34466	164	0.973
49	34807	165	0.973
49	35148	166	0.973
49	35489	167	5.3785472161281
49	35830	168	7.3996140075628
49	36171	169	8.1639380243137
49	36512	170	5.4381254855014
49	36853	171	2.2212364672873
49	37213	172	1.8847101169139
49	37574	173	2.1627210640078
49	37936	174	2.162620248978
49	38297	175	1.8031391447805
49	38658	176	2.1149695873679
49	39019	177	2.2046350634555
48	14050	93	0.072690632459707
48	14271	94	-0.047309383179526
48	14492	95	0.043206556115765
48	14713	96	-0.030736497738399
48	14934	97	0.062753513066564
48	15155	98	-0.062574594626202
48	15376	99	0.051181317619047
48	15597	100	-0.03086169825634
48	15818	101	-0.031633475117852
48	16058	102	0.012104014393408
48	16299	103	-0.0040520619344893
48	16540	104	-0.032199852019549
48	16781	105	0.12001943684882
48	17022	106	-0.1241678010649
48	17263	107	0.070976540048141
48	17504	108	0.013336821135599
48	17745	109	0.041921338513493
48	17986	110	-0.069528656823096
48	18227	111	0.024782653260045
48	18557	112	0.033415621034802
48	19032	113	-0.0050706146354802
48	19579	114	0.015251009254717
48	19840	115	-0.092956690113061
48	20101	116	0.026746558540037
48	20362	117	0.035771992856169
48	20623	118	0.02376441979548
48	20884	119	-0.032789700774011
48	21145	120	-0.00037507934030145
48	21406	121	0.026606349218637
48	21686	122	-0.055778438139241
48	21967	123	0.03976581168361
48	22249	124	-0.057843243468088
48	22530	125	0.023724672424143
48	22811	126	0.05576934781624
48	23092	127	-0.056706570233219
48	23373	128	0.00057330820942347
48	23654	129	-0.04621906726854
48	23935	130	0.032089849358892
48	24216	131	-0.036853951625528
48	24516	132	-0.0094128890545093
48	24817	133	0.095722204016056
48	25118	134	-0.087082948430908
48	25419	135	0.08157088288106
48	25720	136	-0.050978110483847
48	26021	137	0.0011725683393884
48	26322	138	-3.8301270641811
48	26623	139	-3.79
48	26924	140	2.2961120619928
48	27225	141	2.0210215755692
48	27526	142	1.8524110258697
48	27827	143	1.5073853139142
48	28128	144	0.029423514921218
48	28429	145	-0.0080690257507374
48	28730	146	-1.4330321884199
48	29031	147	-4.5
48	29332	148	-0.24
48	29633	149	1.8763785008248
48	29934	150	1.9869501669472
48	30235	151	1.8390872650663
48	30555	152	2.0395900670392
48	30876	153	1.8583765941369
48	31197	154	0.014866154028116
48	31518	155	0.061426608702167
48	31839	156	-0.068285519587807
48	32160	157	0.093036315825302
48	32481	158	-0.02401583580766
48	32802	159	-0.031052562682888
48	33123	160	-0.06255662658252
48	33444	161	0.0091163537697874
48	33784	162	0.07437990666833
48	34125	163	-0.0080371143668891
48	34466	164	-4.2983965259463
48	34807	165	-4.4882488615485
48	35148	166	-1.66
48	35489	167	1.7639147360669
48	35830	168	2.1246882934147
48	36171	169	1.9877283769054
48	36512	170	1.0073933381611
48	36853	171	0.052238219007849
48	37213	172	-0.045882469159551
48	37574	173	0.035308758588508
48	37936	174	0.03415611974895
48	38297	175	-0.070031778875272
48	38658	176	0.021653041725513
48	39019	177	0.046600667573511
47	13829	92	13.95971249267
47	14050	93	14.03240312513
47	14271	94	13.98509374195
47	14492	95	14.028300298066
47	14713	96	13.997563800328
47	14934	97	14.060317313394
47	15155	98	13.997742718768
47	15376	99	14.048924036387
47	15597	100	14.018062338131
47	15818	101	13.986428863013
47	16058	102	13.998532877406
47	16299	103	13.994480815472
47	16540	104	13.962280963452
47	16781	105	14.082300400301
47	17022	106	13.958132599236
47	17263	107	14.029109139284
47	17504	108	14.04244596042
47	17745	109	14.084367298933
47	17986	110	14.01483864211
47	18227	111	14.03962129537
47	18557	112	14.073036916405
47	19032	113	14.06796630177
47	19579	114	14.083217311024
47	19840	115	13.990260620911
47	20101	116	14.017007179451
47	20362	117	14.052779172308
47	20623	118	14.076543592103
47	20884	119	14.043753891329
47	21145	120	14.043378811989
47	21406	121	14.069985161207
47	21686	122	14.014206723068
47	21967	123	14.053972534752
47	22249	124	13.996129291284
47	22530	125	14.019853963708
47	22811	126	14.075623311524
47	23092	127	14.018916741291
47	23373	128	14.0194900495
47	23654	129	13.973270982232
47	23935	130	14.005360831591
47	24216	131	13.968506879965
47	24516	132	13.959093990911
47	24817	133	14.054816194927
47	25118	134	13.967733246496
47	25419	135	14.049304129377
47	25720	136	13.998326018893
47	26021	137	13.999498587232
47	26322	138	10.169371523051
47	26623	139	6.3793715230512
47	26924	140	8.675483585044
47	27225	141	10.696505160613
47	27526	142	12.548916186483
47	27827	143	14.056301500397
47	28128	144	14.085725015318
47	28429	145	14.077655989567
47	28730	146	12.644623801148
47	29031	147	8.1446238011476
47	29332	148	7.9046238011476
47	29633	149	9.7810023019723
47	29934	150	11.76795246892
47	30235	151	13.607039733986
47	30555	152	15.646629801025
47	30876	153	17.505006395162
47	31197	154	17.51987254919
47	31518	155	17.581299157892
47	31839	156	17.513013638305
47	32160	157	17.60604995413
47	32481	158	17.582034118322
47	32802	159	17.550981555639
47	33123	160	17.488424929057
47	33444	161	17.497541282827
47	33784	162	17.571921189495
47	34125	163	17.563884075128
47	34466	164	13.265487549182
47	34807	165	8.7772386876332
47	35148	166	7.1172386876332
47	35489	167	8.8811534237001
47	35830	168	11.005841717115
47	36171	169	12.99357009402
47	36512	170	14.000963432181
47	36853	171	14.053201651189
47	37213	172	14.00731918203
47	37574	173	14.042627940618
47	37936	174	14.076784060367
47	38297	175	14.006752281492
47	38658	176	14.028405323217
47	39019	177	14.075005990791
46	13609	91	1369.0921807226
46	13829	92	1382.0451399065
46	14050	93	1395.0750856557
46	14271	94	1408.2462018178
46	14492	95	1421.3452230079
46	14713	96	1433.8817994701
46	14934	97	1445.7853677943
46	15155	98	1456.7302815598
46	15376	99	1473.2046282019
46	15597	100	1483.0945989073
46	15818	101	1492.9871945668
46	16058	102	1502.8926112482
46	16299	103	1512.7975282932
46	16540	104	1522.693766299
46	16781	105	1543.2004693254
46	17022	106	1549.2560711944
46	17263	107	1555.3100828842
46	17504	108	1575.2626330761
46	17745	109	1584.1575763041
46	17986	110	1602.037891456
46	18227	111	1608.572674721
46	18557	112	1700.8855834379
46	19032	113	1700.9162921396
46	19579	114	1700.9470358116
46	19840	115	1700.9777034185
46	20101	116	1701.0083993325
46	20362	117	1701.0390951241
46	20623	118	1710.151726248
46	20884	119	1719.763081073
46	21145	120	1729.3737819046
46	21406	121	1739.0057321739
46	21686	122	1748.6125245595
46	21967	123	1758.2158817321
46	22249	124	1767.8221501755
46	22530	125	1777.4286101811
46	22811	126	1787.0458549887
46	23092	127	1815.4032069517
46	23373	128	1824.7340948456
46	23654	129	1834.0683085685
46	23935	130	1843.4170547791
46	24216	131	1852.7732380139
46	24516	132	1865.2400663606
46	24817	133	1878.4868348396
46	25118	134	1888.1842268373
46	25419	135	1905.6042334256
46	25720	136	1914.6119936155
46	26021	137	1923.5135583297
46	26322	138	1931.2459904831
46	26623	139	1936.1820019285
46	26924	140	1944.0348364826
46	27225	141	1948.2735535762
46	27526	142	1965.5354541784
46	27827	143	1973.8843027557
46	28128	144	1982.7749238576
46	28429	145	1991.6640042578
46	28730	146	2000.3799139117
46	29031	147	2006.8640389016
46	29332	148	2023.8596789429
46	29633	149	2028.2508164564
46	29934	150	2033.5766255504
46	30235	151	2039.8959333105
46	30555	152	2047.1427975168
46	30876	153	2055.3403695111
46	31197	154	2067.0316863707
46	31518	155	2076.0349922226
46	31839	156	2085.0516058202
46	32160	157	2096.8597805024
46	32481	158	2105.5049170059
46	32802	159	2114.145757507
46	33123	160	2125.8036168142
46	33444	161	2134.6486717914
46	33784	162	2146.435433841
46	34125	163	2154.4017188459
46	34466	164	2161.3369812057
46	34807	165	2166.2354479609
46	35148	166	2169.4163100683
46	35489	167	2181.1872659162
46	35830	168	2186.6061771166
46	36171	169	2193.3127308756
46	36512	170	2200.9173463717
46	36853	171	2215.3866289573
46	37213	172	2223.5140917516
46	37574	173	2220.2116150939
46	37936	174	2213.2174795989
46	38297	175	2206.2248961756
46	38658	176	2199.961392006
46	39019	177	2195.255495658
45	13609	91	2299.8687239604
45	13829	92	2302.1009522524
45	14050	93	2303.8117202077
45	14271	94	2304.2953249048
45	14492	95	2303.1469259354
45	14713	96	2299.5148966446
45	14934	97	2294.0085753914
45	15155	98	2286.6633221532
45	15376	99	2275.4759554256
45	15597	100	2268.615996136
45	15818	101	2261.7542161051
45	16058	102	2254.8835430561
45	16299	103	2248.0132165688
45	16540	104	2241.1489101049
45	16781	105	2226.914820864
45	17022	106	2222.7034618668
45	17263	107	2218.4932087573
45	17504	108	2206.4379731775
45	17745	109	2203.9817709952
45	17986	110	2202.4047611615
45	18227	111	2201.8252939887
45	18557	112	2186.8742587334
45	19032	113	2186.8629450012
45	19579	114	2186.8516183852
45	19840	115	2186.8403197932
45	20101	116	2186.8290107723
45	20362	117	2186.8177017964
45	20623	118	2181.7759711319
45	20884	119	2174.9198792741
45	21145	120	2168.0642539311
45	21406	121	2161.1934706735
45	21686	122	2154.3406333521
45	21967	123	2147.4902464797
45	22249	124	2140.6377829034
45	22530	125	2133.7851826794
45	22811	126	2126.9248893056
45	23092	127	2107.4011987159
45	23373	128	2101.0510642998
45	23654	129	2094.6986664912
45	23935	130	2088.3363786002
45	24216	131	2081.9690294436
45	24516	132	2073.2322661999
45	24817	133	2064.1222598182
45	25118	134	2057.5239589573
45	25419	135	2045.6523398506
45	25720	136	2038.6062427683
45	26021	137	2031.4512599553
45	26322	138	2025.2360134299
45	26623	139	2021.2685000555
45	26924	140	2014.9201652946
45	27225	141	2011.6336632092
45	27526	142	1996.9930699076
45	27827	143	1989.8552661036
45	28128	144	1982.8103369488
45	28429	145	1975.7666286462
45	28730	146	1968.8601408624
45	29031	147	1963.7941871786
45	29332	148	1962.8679663468
45	29633	149	1969.2829104354
45	29934	150	1977.0633016119
45	30235	151	1986.295079445
45	30555	152	1996.8819099778
45	30876	153	2008.8576146429
45	31197	154	2025.9328707192
45	31518	155	2039.0748803441
45	31839	156	2052.2391245629
45	32160	157	2069.490841912
45	32481	158	2082.1143931439
45	32802	159	2094.7316713916
45	33123	160	2111.7593766722
45	33444	161	2124.6804268471
45	33784	162	2141.8755970642
45	34125	163	2153.5043206664
45	34466	164	2163.6280168486
45	34807	165	2170.7785162264
45	35148	166	2175.4217553574
45	35489	167	2172.8755233264
45	35830	168	2167.2488807939
45	36171	169	2160.6052009763
45	36512	170	2153.0718787506
45	36853	171	2138.4502392957
45	37213	172	2130.2804051403
45	37574	173	2121.4181243913
45	37936	174	2112.2544982187
45	38297	175	2103.0929055506
45	38658	176	2093.502095714
45	39019	177	2082.9890792235
vector 85 AaucphScenario.node[17].veinsmobility posx ETV
vector 86 AaucphScenario.node[17].veinsmobility posy ETV
vector 87 AaucphScenario.node[17].veinsmobility speed ETV
vector 88 AaucphScenario.node[17].veinsmobility acceleration ETV
vector 89 AaucphScenario.node[17].veinsmobility co2emission ETV
vector 90 AaucphScenario.node[18].veinsmobility posx ETV
vector 91 AaucphScenario.node[18].veinsmobility posy ETV
vector 92 AaucphScenario.node[18].veinsmobility speed ETV
vector 93 AaucphScenario.node[18].veinsmobility acceleration ETV
vector 94 AaucphScenario.node[18].veinsmobility co2emission ETV
0	21	1	2214.1106303655
0	61	2	2223.1328863695
0	102	3	2229.2667787022
0	143	4	2232.6083381942
0	184	5	2226.8119032563
0	225	6	2219.8358699356
0	266	7	2212.3191345467
0	307	8	2204.812489862
0	348	9	2197.3087419645
0	389	10	2189.817535894
0	430	11	2172.1586885964
0	490	12	2162.3959437685
0	551	13	2152.1817402728
0	612	14	2141.9585785538
0	673	15	2126.1306249313
0	734	16	2114.7480905676
0	795	17	2103.3895272687
0	856	18	2088.1190946017
0	917	19	2077.0112056154
0	978	20	2061.5932160079
0	1039	21	2050.0347974929
0	1119	22	2038.4462997172
0	1200	23	2026.8589817692
0	1281	24	2011.3520203042
0	1362	25	2000.2451670929
0	1443	26	1989.1304118635
0	1524	27	1978.4750495786
0	1605	28	1970.6604670606
0	1686	29	1965.5633697183
0	1767	30	1948.785177509
0	1848	31	1943.7659144926
0	1948	32	1937.9428286907
0	2049	33	1932.029274772
0	2150	34	1926.1124610595
0	2251	35	1920.1964638135
0	2352	36	1905.4752997397
0	2453	37	1899.4105323029
0	2554	38	1893.3525103219
0	2655	39	1887.806335119
0	2756	40	1884.1605036978
0	2857	41	1874.4820864036
0	2977	42	1872.7570295637
0	3098	43	1864.5621366341
0	3219	44	1853.8945944027
0	3340	45	1848.156417373
0	3461	46	1842.4128374719
0	3582	47	1836.6688401638
0	3703	48	1814.55509787
0	3824	49	1806.0057417553
0	3945	50	1796.8956531317
0	4066	51	1788.0203021464
0	4206	52	1779.2866467466
0	4347	53	1770.7824061565
0	4488	54	1762.4801561119
0	4629	55	1754.6555416365
0	4770	56	1746.8343152496
0	4911	57	1739.0133481247
0	5052	58	1731.8469148885
0	5193	59	1724.9246515067
0	5334	60	1717.9928213216
0	5475	61	1711.1031033791
0	5635	62	1704.2998320707
0	5796	63	1697.4967567384
0	5957	64	1690.6980723578
0	6118	65	1681.7931921103
0	6279	66	1677.6159632576
0	6440	67	1673.4383917972
0	6601	68	1669.7198930001
0	6762	69	1667.2005627019
0	6923	70	1665.8984155936
0	7084	71	1665.7007556512
0	7264	72	1665.7007556512
0	7445	73	1665.7007556512
0	7627	74	1665.7007556512
0	7808	75	1665.7007556512
0	7989	76	1665.7007556512
0	8170	77	1665.7007556512
0	8351	78	1665.7007556512
0	8532	79	1665.7007556512
0	8713	80	1665.7007556512
0	9213	81	1665.7007556512
0	9941	82	1665.7007556512
0	10847	83	1665.7007556512
0	11337	84	1665.7007556512
0	11768	85	1665.7007556512
0	12317	86	1665.7007556512
0	12691	87	1665.7007556512
0	13006	88	1665.7007556512
0	13207	89	1665.7007556512
0	13408	90	1665.7007556512
0	13609	91	1665.7007556512
0	13829	92	1665.7007556512
0	14050	93	1665.7007556512
0	14271	94	1665.7007556512
0	14492	95	1665.7007556512
0	14713	96	1665.7007556512
0	14934	97	1665.7007556512
0	15155	98	1665.7007556512
0	15376	99	1665.7007556512
0	15597	100	1665.7007556512
0	15818	101	1665.7007556512
0	16058	102	1665.7007556512
0	16299	103	1665.7007556512
0	16540	104	1665.7007556512
0	16781	105	1665.7007556512
0	17022	106	1665.7007556512
0	17263	107	1665.7007556512
0	17504	108	1665.7007556512
0	17745	109	1665.7007556512
0	17986	110	1665.7007556512
0	18227	111	1665.7007556512
0	18557	112	1665.7007556512
0	19032	113	1665.7007556512
0	19579	114	1665.7007556512
0	19840	115	1665.7007556512
0	20101	116	1665.7007556512
0	20362	117	1665.7007556512
0	20623	118	1665.7007556512
0	20884	119	1665.7007556512
0	21145	120	1665.7007556512
0	21406	121	1665.7007556512
0	21686	122	1665.7007556512
0	21967	123	1665.7007556512
0	22249	124	1665.7007556512
0	22530	125	1665.7007556512
0	22811	126	1665.7007556512
0	23092	127	1665.7007556512
0	23373	128	1665.7007556512
0	23654	129	1665.7007556512
0	23935	130	1665.7007556512
0	24216	131	1665.7007556512
0	24516	132	1665.7007556512
0	24817	133	1665.7007556512
0	25118	134	1665.7007556512
0	25419	135	1665.7007556512
0	25720	136	1665.7007556512
0	26021	137	1665.7007556512
0	26322	138	1665.7007556512
0	26623	139	1665.7007556512
0	26924	140	1665.7007556512
0	27225	141	1665.7007556512
0	27526	142	1665.7007556512
0	27827	143	1665.7007556512
0	28128	144	1665.7007556512
0	28429	145	1665.7007556512
0	28730	146	1665.7007556512
0	29031	147	1665.7007556512
0	29332	148	1665.7007556512
0	29633	149	1665.7007556512
0	29934	150	1665.7007556512
0	30235	151	1665.7007556512
0	30555	152	1665.7007556512
0	30876	153	1665.7007556512
0	31197	154	1665.7007556512
0	31518	155	1665.7007556512
0	31839	156	1665.7007556512
0	32160	157	1665.7007556512
0	32481	158	1665.7007556512
0	32802	159	1665.7007556512
0	33123	160	1665.7007556512
0	33444	161	1665.7007556512
0	33784	162	1665.7007556512
0	34125	163	1665.7007556512
0	34466	164	1665.7007556512
0	34807	165	1665.7007556512
0	35148	166	1665.7007556512
0	35489	167	1665.7007556512
0	35830	168	1665.7007556512
0	36171	169	1665.7007556512
0	36512	170	1665.7007556512
0	36853	171	1665.7007556512
0	37213	172	1665.7007556512
0	37574	173	1665.7007556512
0	37936	174	1665.7007556512
0	38297	175	1665.7007556512
0	38658	176	1665.7007556512
0	39019	177	1665.7007556512
0	39380	178	1665.7007556512
0	39721	179	1665.7007556512
0	40062	180	1665.7007556512
0	40403	181	1658.2098924953
0	40763	182	1654.4064182686
0	41124	183	1652.9548622413
0	41485	184	1651.0686958537
0	41846	185	1648.8975505615
0	42207	186	1646.4152612673
0	42568	187	1643.7168120726
0	43348	188	1641.31826882
0	44533	189	1639.0995600251
0	45718	190	1637.5457272218
0	46587	191	1616.4881724054
0	47496	192	1611.8332887388
0	48084	193	1606.1034405369
0	48779	194	1599.3286265023
0	49262	195	1591.5718803896
0	49950	196	1575.5380072166
0	50331	197	1559.9849739252
0	50712	198	1551.5559325661
0	51195	199	1534.7450150836
0	51576	200	1523.9894341366
1	21	1	2104.0056702005
1	61	2	2110.2163930436
1	102	3	2114.4388297835
1	143	4	2125.462671454
1	184	5	2130.8598717568
1	225	6	2137.3554245499
1	266	7	2144.3544380731
1	307	8	2151.3440558984
1	348	9	2158.3309764554
1	389	10	2165.3062190149
1	430	11	2163.3009935117
1	490	12	2156.6130017433
1	551	13	2149.6157371311
1	612	14	2142.6123356668
1	673	15	2131.768289118
1	734	16	2123.9734954169
1	795	17	2116.1951171727
1	856	18	2105.7355545946
1	917	19	2098.1296800632
1	978	20	2087.5727267423
1	1039	21	2079.6634020747
1	1119	22	2071.7243735078
1	1200	23	2063.7861532153
1	1281	24	2053.1688567391
1	1362	25	2045.5660282312
1	1443	26	2037.9577906586
1	1524	27	2030.6640153111
1	1605	28	2025.3148016666
1	1686	29	2021.8257524964
1	1767	30	2027.5041619826
1	1848	31	2034.048944968
1	1948	32	2041.7850779
1	2049	33	2049.6473902698
1	2150	34	2057.514036669
1	2251	35	2065.3795975426
1	2352	36	2084.5060709002
1	2453	37	2092.2293079157
1	2554	38	2099.943954865
1	2655	39	2107.0195975423
1	2756	40	2111.7753352535
1	2857	41	2124.5042111096
1	2977	42	2126.7067390392
1	3098	43	2137.3162400657
1	3219	44	2150.6588218272
1	3340	45	2157.7004074897
1	3461	46	2164.7486232685
1	3582	47	2171.7973512672
1	3703	48	2172.4272986868
1	3824	49	2162.0382497953
1	3945	50	2150.5827454014
1	4066	51	2138.9463356305
1	4206	52	2127.2067264711
1	4347	53	2115.278488927
1	4488	54	2103.2402263622
1	4629	55	2090.8602555002
1	4770	56	2078.4856245868
1	4911	57	2066.1109631228
1	5052	58	2053.3533462634
1	5193	59	2040.47315838
1	5334	60	2027.5751696392
1	5475	61	2014.6596078334
1	5635	62	2001.6865873538
1	5796	63	1988.7139405768
1	5957	64	1975.7496668171
1	6118	65	1955.3250956967
1	6279	66	1947.36154843
1	6440	67	1939.3973480093
1	6601	68	1932.3083323061
1	6762	69	1927.5054338731
1	6923	70	1925.0229962547
1	7084	71	1924.646173641
1	7264	72	1924.646173641
1	7445	73	1924.646173641
1	7627	74	1924.646173641
1	7808	75	1924.646173641
1	7989	76	1924.646173641
1	8170	77	1924.646173641
1	8351	78	1924.646173641
1	8532	79	1924.646173641
1	8713	80	1924.646173641
1	9213	81	1924.646173641
1	9941	82	1924.646173641
1	10847	83	1924.646173641
1	11337	84	1924.646173641
1	11768	85	1924.646173641
1	12317	86	1924.646173641
1	12691	87	1924.646173641
1	13006	88	1924.646173641
1	13207	89	1924.646173641
1	13408	90	1924.646173641
1	13609	91	1924.646173641
1	13829	92	1924.646173641
1	14050	93	1924.646173641
1	14271	94	1924.646173641
1	14492	95	1924.646173641
1	14713	96	1924.646173641
1	14934	97	1924.646173641
1	15155	98	1924.646173641
1	15376	99	1924.646173641
1	15597	100	1924.646173641
1	15818	101	1924.646173641
1	16058	102	1924.646173641
1	16299	103	1924.646173641
1	16540	104	1924.646173641
1	16781	105	1924.646173641
1	17022	106	1924.646173641
1	17263	107	1924.646173641
1	17504	108	1924.646173641
1	17745	109	1924.646173641
1	17986	110	1924.646173641
1	18227	111	1924.646173641
1	18557	112	1924.646173641
1	19032	113	1924.646173641
1	19579	114	1924.646173641
1	19840	115	1924.646173641
1	20101	116	1924.646173641
1	20362	117	1924.646173641
1	20623	118	1924.646173641
1	20884	119	1924.646173641
1	21145	120	1924.646173641
1	21406	121	1924.646173641
1	21686	122	1924.646173641
1	21967	123	1924.646173641
1	22249	124	1924.646173641
1	22530	125	1924.646173641
1	22811	126	1924.646173641
1	23092	127	1924.646173641
1	23373	128	1924.646173641
1	23654	129	1924.646173641
1	23935	130	1924.646173641
1	24216	131	1924.646173641
1	24516	132	1924.646173641
1	24817	133	1924.646173641
1	25118	134	1924.646173641
1	25419	135	1924.646173641
1	25720	136	1924.646173641
1	26021	137	1924.646173641
1	26322	138	1924.646173641
1	26623	139	1924.646173641
1	26924	140	1924.646173641
1	27225	141	1924.646173641
1	27526	142	1924.646173641
1	27827	143	1924.646173641
1	28128	144	1924.646173641
1	28429	145	1924.646173641
1	28730	146	1924.646173641
1	29031	147	1924.646173641
1	29332	148	1924.646173641
1	29633	149	1924.646173641
1	29934	150	1924.646173641
1	30235	151	1924.646173641
1	30555	152	1924.646173641
1	30876	153	1924.646173641
1	31197	154	1924.646173641
1	31518	155	1924.646173641
1	31839	156	1924.646173641
1	32160	157	1924.646173641
1	32481	158	1924.646173641
1	32802	159	1924.646173641
1	33123	160	1924.646173641
1	33444	161	1924.646173641
1	33784	162	1924.646173641
1	34125	163	1924.646173641
1	34466	164	1924.646173641
1	34807	165	1924.646173641
1	35148	166	1924.646173641
1	35489	167	1924.646173641
1	35830	168	1924.646173641
1	36171	169	1924.646173641
1	36512	170	1924.646173641
1	36853	171	1924.646173641
1	37213	172	1924.646173641
1	37574	173	1924.646173641
1	37936	174	1924.646173641
1	38297	175	1924.646173641
1	38658	176	1924.646173641
1	39019	177	1924.646173641
1	39380	178	1924.646173641
1	39721	179	1924.646173641
1	40062	180	1924.646173641
1	40403	181	1910.5578064916
1	40763	182	1910.3044975175
1	41124	183	1907.4013519226
1	41485	184	1903.4564918491
1	41846	185	1898.4049243738
1	42207	186	1892.1106226197
1	42568	187	1884.5295834219
1	43348	188	1875.6726832851
1	44533	189	1867.2345767046
1	45718	190	1861.3251005117
1	46587	191	1852.8046249739
1	47496	192	1853.6364104618
1	48084	193	1854.500156203
1	48779	194	1855.0045500429
1	49262	195	1853.8882627215
1	49950	196	1846.327321819
1	50331	197	1835.9921131521
1	50712	198	1830.3962264401
1	51195	199	1819.2343025184
1	51576	200	1812.0952805509
2	61	2	11.896847442277
2	102	3	7.3972185404338
2	143	4	8.5349607898081
2	184	5	10.359105379788
2	225	6	12.385796834512
2	266	7	12.401381451529
2	307	8	12.30234070834
2	348	9	12.326222110472
2	389	10	12.314116363751
2	430	11	13.597461890748
2	490	12	15.468782646008
2	551	13	15.436273143314
2	612	14	15.438947891101
2	673	15	15.447734440955
2	734	16	15.423954555855
2	795	17	15.425137192052
2	856	18	15.478874048366
2	917	19	15.499007738315
2	978	20	15.378832673029
2	1039	21	15.42159243354
2	1119	22	15.502393998379
2	1200	23	15.481401237372
2	1281	24	15.418016634636
2	1362	25	15.476011351686
2	1443	26	15.495825173034
2	1524	27	13.344759812128
2	1605	28	8.8447598121277
2	1686	29	7.1991754601741
2	1767	30	9.2206901332814
2	1848	31	11.371929407237
2	1948	32	12.314516808691
2	2049	33	12.368043873312
2	2150	34	12.299380508284
2	2251	35	12.377043533472
2	2352	36	12.39382666514
2	2453	37	12.33322822331
2	2554	38	12.37100397082
2	2655	39	9.5432908482151
2	2756	40	7.238350193582
2	2857	41	9.4090915547451
2	2977	42	11.523658187534
2	3098	43	12.354280536878
2	3219	44	12.350656875726
2	3340	45	12.303309994752
2	3461	46	12.275733354557
2	3582	47	12.314485265608
2	3703	48	13.22042332611
2	3824	49	15.104525975648
2	3945	50	15.472844361613
2	4066	51	15.447811838732
2	4206	52	15.444632249853
2	4347	53	15.441586264399
2	4488	54	15.426892097056
2	4629	55	15.497165292037
2	4770	56	15.406300046711
2	4911	57	15.416501525251
2	5052	58	15.376947306659
2	5193	59	15.437428040478
2	5334	60	15.446590992505
2	5475	61	15.379754920876
2	5635	62	15.45698636905
2	5796	63	15.49636739439
2	5957	64	15.39185955655
2	6118	65	15.380091226747
2	6279	66	15.479348326876
2	6440	67	15.416930257861
2	6601	68	11.789116753417
2	6762	69	7.2891167534168
2	6923	70	2.7891167534168
2	7084	71	0
2	7264	72	0
2	7445	73	0
2	7627	74	0
2	7808	75	0
2	7989	76	0
2	8170	77	0
2	8351	78	0
2	8532	79	0
2	8713	80	0
2	9213	81	0
2	9941	82	0
2	10847	83	0
2	11337	84	0
2	11768	85	0
2	12317	86	0
2	12691	87	0
2	13006	88	0
2	13207	89	0
2	13408	90	0
2	13609	91	0
2	13829	92	0
2	14050	93	0
2	14271	94	0
2	14492	95	0
2	14713	96	0
2	14934	97	0
2	15155	98	0
2	15376	99	0
2	15597	100	0
2	15818	101	0
2	16058	102	0
2	16299	103	0
2	16540	104	0
2	16781	105	0
2	17022	106	0
2	17263	107	0
2	17504	108	0
2	17745	109	0
2	17986	110	0
2	18227	111	0
2	18557	112	0
2	19032	113	0
2	19579	114	0
2	19840	115	0
2	20101	116	0
2	20362	117	0
2	20623	118	0
2	20884	119	0
2	21145	120	0
2	21406	121	0
2	21686	122	0
2	21967	123	0
2	22249	124	0
2	22530	125	0
2	22811	126	0
2	23092	127	0
2	23373	128	0
2	23654	129	0
2	23935	130	0
2	24216	131	0
2	24516	132	0
2	24817	133	0
2	25118	134	0
2	25419	135	0
2	25720	136	0
2	26021	137	0
2	26322	138	0
2	26623	139	0
2	26924	140	0
2	27225	141	0
2	27526	142	0
2	27827	143	0
2	28128	144	0
2	28429	145	0
2	28730	146	0
2	29031	147	0
2	29332	148	0
2	29633	149	0
2	29934	150	0
2	30235	151	0
2	30555	152	0
2	30876	153	0
2	31197	154	0
2	31518	155	0
2	31839	156	0
2	32160	157	0
2	32481	158	0
2	32802	159	0
2	33123	160	0
2	33444	161	0
2	33784	162	0
2	34125	163	0
2	34466	164	0
2	34807	165	0
2	35148	166	0
2	35489	167	0
2	35830	168	0
2	36171	169	0
2	36512	170	0
2	36853	171	0
2	37213	172	0
2	37574	173	0
2	37936	174	0
2	38297	175	0
2	38658	176	0
2	39019	177	0
2	39380	178	0
2	39721	179	0
2	40062	180	0
2	40403	181	2.2769156185246
2	40763	182	4.2645752382071
2	41124	183	6.1934459600879
2	41485	184	7.9933989938444
2	41846	185	9.9720146631824
2	42207	186	11.99184273989
2	42568	187	14.163665141794
2	43348	188	15.421801659252
2	44533	189	12.459014833194
2	45718	190	7.9822803294813
2	46587	191	7.6671784835486
2	47496	192	9.8538965089285
2	48084	193	11.646445182605
2	48779	194	13.672236371151
2	49262	195	15.424686523084
2	49950	196	15.40522760698
2	50331	197	15.465148972963
2	50712	198	15.450792266246
2	51195	199	15.401051532546
2	51576	200	15.476542596509
3	102	3	-4.4996289018429
3	143	4	1.1377422493743
3	184	5	1.8241445899801
3	225	6	2.0266914547235
3	266	7	0.01558461701776
3	307	8	-0.099040743189398
3	348	9	0.023881402132101
3	389	10	-0.012105746720918
3	430	11	1.283345526997
3	490	12	1.8713207552595
3	551	13	-0.03250950269401
3	612	14	0.0026747477869495
3	673	15	0.008786549854559
3	734	16	-0.023779885100668
3	795	17	0.0011826361971909
3	856	18	0.053736856314353
3	917	19	0.02013368994929
3	978	20	-0.12017506528646
3	1039	21	0.042759760511109
3	1119	22	0.080801564839202
3	1200	23	-0.020992761007509
3	1281	24	-0.06338460273575
3	1362	25	0.057994717049878
3	1443	26	0.019813821348361
3	1524	27	-2.1510653609065
3	1605	28	-4.5
3	1686	29	-1.6455843519536
3	1767	30	2.0215146731073
3	1848	31	2.1512392739556
3	1948	32	0.94258740145395
3	2049	33	0.053527064621449
3	2150	34	-0.068663365028332
3	2251	35	0.077663025187794
3	2352	36	0.016783131668344
3	2453	37	-0.060598441830372
3	2554	38	0.037775747510606
3	2655	39	-2.8277131226054
3	2756	40	-2.3049406546331
3	2857	41	2.1707413611631
3	2977	42	2.1145666327886
3	3098	43	0.83062234934421
3	3219	44	-0.003623661152087
3	3340	45	-0.047346880973784
3	3461	46	-0.027576640194747
3	3582	47	0.038751911050641
3	3703	48	0.90593806050252
3	3824	49	1.8841026495374
3	3945	50	0.36831838596512
3	4066	51	-0.025032522880938
3	4206	52	-0.0031795888789929
3	4347	53	-0.0030459854542286
3	4488	54	-0.014694167342968
3	4629	55	0.070273194981274
3	4770	56	-0.090865245326421
3	4911	57	0.010201478539965
3	5052	58	-0.039554218591656
3	5193	59	0.060480733818839
3	5334	60	0.0091629520268182
3	5475	61	-0.066836071629076
3	5635	62	0.077231448173988
3	5796	63	0.039381025340408
3	5957	64	-0.10450783784036
3	6118	65	-0.011768329802434
3	6279	66	0.099257100129034
3	6440	67	-0.062418069015257
3	6601	68	-3.6278135044442
3	6762	69	-4.5
3	6923	70	-4.5
3	7084	71	-2.7891167534168
3	7264	72	0
3	7445	73	0
3	7627	74	0
3	7808	75	0
3	7989	76	0
3	8170	77	0
3	8351	78	0
3	8532	79	0
3	8713	80	0
3	9213	81	0
3	9941	82	0
3	10847	83	0
3	11337	84	0
3	11768	85	0
3	12317	86	0
3	12691	87	0
3	13006	88	0
3	13207	89	0
3	13408	90	0
3	13609	91	0
3	13829	92	0
3	14050	93	0
3	14271	94	0
3	14492	95	0
3	14713	96	0
3	14934	97	0
3	15155	98	0
3	15376	99	0
3	15597	100	0
3	15818	101	0
3	16058	102	0
3	16299	103	0
3	16540	104	0
3	16781	105	0
3	17022	106	0
3	17263	107	0
3	17504	108	0
3	17745	109	0
3	17986	110	0
3	18227	111	0
3	18557	112	0
3	19032	113	0
3	19579	114	0
3	19840	115	0
3	20101	116	0
3	20362	117	0
3	20623	118	0
3	20884	119	0
3	21145	120	0
3	21406	121	0
3	21686	122	0
3	21967	123	0
3	22249	124	0
3	22530	125	0
3	22811	126	0
3	23092	127	0
3	23373	128	0
3	23654	129	0
3	23935	130	0
3	24216	131	0
3	24516	132	0
3	24817	133	0
3	25118	134	0
3	25419	135	0
3	25720	136	0
3	26021	137	0
3	26322	138	0
3	26623	139	0
3	26924	140	0
3	27225	141	0
3	27526	142	0
3	27827	143	0
3	28128	144	0
3	28429	145	0
3	28730	146	0
3	29031	147	0
3	29332	148	0
3	29633	149	0
3	29934	150	0
3	30235	151	0
3	30555	152	0
3	30876	153	0
3	31197	154	0
3	31518	155	0
3	31839	156	0
3	32160	157	0
3	32481	158	0
3	32802	159	0
3	33123	160	0
3	33444	161	0
3	33784	162	0
3	34125	163	0
3	34466	164	0
3	34807	165	0
3	35148	166	0
3	35489	167	0
3	35830	168	0
3	36171	169	0
3	36512	170	0
3	36853	171	0
3	37213	172	0
3	37574	173	0
3	37936	174	0
3	38297	175	0
3	38658	176	0
3	39019	177	0
3	39380	178	0
3	39721	179	0
3	40062	180	0
3	40403	181	2.2769156185246
3	40763	182	1.9876596196825
3	41124	183	1.9288707218808
3	41485	184	1.7999530337565
3	41846	185	1.978615669338
3	42207	186	2.0198280767072
3	42568	187	2.1718224019045
3	43348	188	1.2581365174578
3	44533	189	-2.9627868260578
3	45718	190	-4.4767345037128
3	46587	191	-0.31510184593266
3	47496	192	2.1867180253798
3	48084	193	1.7925486736768
3	48779	194	2.025791188546
3	49262	195	1.7524501519323
3	49950	196	-0.019458916103467
3	50331	197	0.059921365983318
3	50712	198	-0.014356706717518
3	51195	199	-0.049740733699872
3	51576	200	0.075491063962691
4	102	3	0.973
4	143	4	3.9194126979625
4	184	5	6.2664738681001
4	225	6	7.9326455428363
4	266	7	1.9310115627054
4	307	8	1.5818255399812
4	348	9	1.94856610969
4	389	10	1.8406040838574
4	430	11	6.2036947893628
4	490	12	9.1743871634829
4	551	13	2.0734876119805
4	612	14	2.2046854273577
4	673	15	2.2284493643788
4	734	16	2.1046265584243
4	795	17	2.1975519348457
4	856	18	2.3997640257725
4	917	19	2.2768180565753
4	978	20	1.742472934248
4	1039	21	2.3516719333046
4	1119	22	2.5038831744598
4	1200	23	2.1212689756579
4	1281	24	1.956821891415
4	1362	25	2.4152794287344
4	1443	26	2.2752427086172
4	1524	27	0.973
4	1605	28	0.973
4	1686	29	0.973
4	1767	30	6.1194090914178
4	1848	31	7.6901983478221
4	1948	32	4.6739760036957
4	2049	33	2.040956046222
4	2150	34	1.6716723905822
4	2251	35	2.1138824596846
4	2352	36	1.9338767987311
4	2453	37	1.698139465328
4	2554	38	1.9943013794567
4	2655	39	0.973
4	2756	40	0.973
4	2857	41	6.5631995581125
4	2977	42	7.679844773898
4	3098	43	4.353240942471
4	3219	44	1.8690473403986
4	3340	45	1.7351671739623
4	3461	46	1.7914865812319
4	3582	47	1.9915712031452
4	3703	48	4.8476386280182
4	3824	49	9.0154774281189
4	3945	50	3.5720553686352
4	4066	51	2.1025525885824
4	4206	52	2.1835481875541
4	4347	53	2.1836994560473
4	4488	54	2.1387247579096
4	4629	55	2.4638594609096
4	4770	56	1.853630983368
4	4911	57	2.2300721660315
4	5052	58	2.0410813322638
4	5193	59	2.4195732964007
4	5334	60	2.2297173735297
4	5475	61	1.9402532623752
4	5635	62	2.4844938990111
4	5796	63	2.3483836988433
4	5957	64	1.8016952480249
4	6118	65	2.1444003162768
4	6279	66	2.5696388546359
4	6440	67	1.9603056516202
4	6601	68	0.973
4	6762	69	0.973
4	6923	70	0.973
4	7084	71	0.973
4	7264	72	0.973
4	7445	73	0.973
4	7627	74	0.973
4	7808	75	0.973
4	7989	76	0.973
4	8170	77	0.973
4	8351	78	0.973
4	8532	79	0.973
4	8713	80	0.973
4	9213	81	0.973
4	9941	82	0.973
4	10847	83	0.973
4	11337	84	0.973
4	11768	85	0.973
4	12317	86	0.973
4	12691	87	0.973
4	13006	88	0.973
4	13207	89	0.973
4	13408	90	0.973
4	13609	91	0.973
4	13829	92	0.973
4	14050	93	0.973
4	14271	94	0.973
4	14492	95	0.973
4	14713	96	0.973
4	14934	97	0.973
4	15155	98	0.973
4	15376	99	0.973
4	15597	100	0.973
4	15818	101	0.973
4	16058	102	0.973
4	16299	103	0.973
4	16540	104	0.973
4	16781	105	0.973
4	17022	106	0.973
4	17263	107	0.973
4	17504	108	0.973
4	17745	109	0.973
4	17986	110	0.973
4	18227	111	0.973
4	18557	112	0.973
4	19032	113	0.973
4	19579	114	0.973
4	19840	115	0.973
4	20101	116	0.973
4	20362	117	0.973
4	20623	118	0.973
4	20884	119	0.973
4	21145	120	0.973
4	21406	121	0.973
4	21686	122	0.973
4	21967	123	0.973
4	22249	124	0.973
4	22530	125	0.973
4	22811	126	0.973
4	23092	127	0.973
4	23373	128	0.973
4	23654	129	0.973
4	23935	130	0.973
4	24216	131	0.973
4	24516	132	0.973
4	24817	133	0.973
4	25118	134	0.973
4	25419	135	0.973
4	25720	136	0.973
4	26021	137	0.973
4	26322	138	0.973
4	26623	139	0.973
4	26924	140	0.973
4	27225	141	0.973
4	27526	142	0.973
4	27827	143	0.973
4	28128	144	0.973
4	28429	145	0.973
4	28730	146	0.973
4	29031	147	0.973
4	29332	148	0.973
4	29633	149	0.973
4	29934	150	0.973
4	30235	151	0.973
4	30555	152	0.973
4	30876	153	0.973
4	31197	154	0.973
4	31518	155	0.973
4	31839	156	0.973
4	32160	157	0.973
4	32481	158	0.973
4	32802	159	0.973
4	33123	160	0.973
4	33444	161	0.973
4	33784	162	0.973
4	34125	163	0.973
4	34466	164	0.973
4	34807	165	0.973
4	35148	166	0.973
4	35489	167	0.973
4	35830	168	0.973
4	36171	169	0.973
4	36512	170	0.973
4	36853	171	0.973
4	37213	172	0.973
4	37574	173	0.973
4	37936	174	0.973
4	38297	175	0.973
4	38658	176	0.973
4	39019	177	0.973
4	39380	178	0.973
4	39721	179	0.973
4	40062	180	0.973
4	40403	181	2.4703559597477
4	40763	182	3.3657301259525
4	41124	183	4.3097904953256
4	41485	184	5.0102285775679
4	41846	185	6.4377745162353
4	42207	186	7.6851639008126
4	42568	187	9.4691299024168
4	43348	188	6.8688331008755
4	44533	189	0.973
4	45718	190	0.973
4	46587	191	0.973
4	47496	192	6.8667346956759
4	48084	193	6.849070882245
4	48779	194	8.6806462991017
4	49262	195	8.7075736897069
4	49950	196	2.1186396058469
4	50331	197	2.4210639251798
4	50712	198	2.1426284370933
4	51195	199	2.0057875368553
4	51576	200	2.4806064371876
5	430	11	1947.665002715
5	490	12	1955.2093529051
5	551	13	1965.0073117102
5	612	14	1976.1235939435
5	673	15	1987.2200543197
5	734	16	1998.3110365457
5	795	17	2009.4100001423
5	856	18	2020.5189234287
5	917	19	2034.8698417752
5	978	20	2040.8972073194
5	1039	21	2044.8771260722
5	1119	22	2043.8571888453
5	1200	23	2038.5060140333
5	1281	24	2032.5928994341
5	1362	25	2026.6833644051
5	1443	26	2022.1314257938
5	1524	27	2015.5497506964
5	1605	28	2012.2833963872
5	1686	29	1998.2244842811
5	1767	30	1991.9915133435
5	1848	31	1986.170222444
5	1948	32	1980.3452396966
5	2049	33	1974.5174090172
5	2150	34	1968.6901690752
5	2251	35	1962.9893520941
5	2352	36	1949.1811888381
5	2453	37	1943.5566673891
5	2554	38	1937.9908330933
5	2655	39	1932.4426006751
5	2756	40	1926.8877825095
5	2857	41	1921.3274773382
5	2977	42	1907.0109139374
5	3098	43	1901.324998557
5	3219	44	1895.6489547547
5	3340	45	1889.9670541612
5	3461	46	1885.5818197422
5	3582	47	1879.3560419597
5	3703	48	1873.6958446889
5	3824	49	1865.9393400178
5	3945	50	1857.4505768334
5	4066	51	1852.0540277932
5	4206	52	1846.6684629445
5	4347	53	1841.2767046439
5	4488	54	1835.8080866845
5	4629	55	1816.348766056
5	4770	56	1808.1384493605
5	4911	57	1799.6049123648
5	5052	58	1791.2735262442
5	5193	59	1783.0926207581
5	5334	60	1775.0801227134
5	5475	61	1767.3021123063
5	5635	62	1759.8492994245
5	5796	63	1752.5301386546
5	5957	64	1745.2067159643
5	6118	65	1738.1007686397
5	6279	66	1731.6115174924
5	6440	67	1725.1285275241
5	6601	68	1718.6368138991
5	6762	69	1712.2178537424
5	6923	70	1705.85908492
5	7084	71	1699.491942363
5	7264	72	1693.126448092
5	7445	73	1684.6434787359
5	7627	74	1680.7225081679
5	7808	75	1676.7980420827
5	7989	76	1673.0300412429
5	8170	77	1670.3249190978
5	8351	78	1668.831679554
5	8532	79	1668.5112430643
5	8713	80	1668.5112430643
5	9213	81	1668.5112430643
5	9941	82	1668.5112430643
5	10847	83	1668.5112430643
5	11337	84	1668.5112430643
5	11768	85	1668.5112430643
5	12317	86	1668.5112430643
5	12691	87	1668.5112430643
5	13006	88	1668.5112430643
5	13207	89	1671.3117303272
5	13408	90	1671.3117303272
5	13609	91	1660.9991978005
5	13829	92	1659.9782563989
5	14050	93	1658.5159133288
5	14271	94	1656.6416925175
5	14492	95	1654.4340339151
5	14713	96	1652.0027691406
5	14934	97	1649.3982853428
5	15155	98	1647.2168352033
5	15376	99	1645.0346836725
5	15597	100	1642.8531689876
5	15818	101	1633.0083995558
5	16058	102	1629.8283733298
5	16299	103	1627.0713149932
5	16540	104	1624.463473912
5	16781	105	1621.7377228336
5	17022	106	1618.7517853157
5	17263	107	1615.5245965213
5	17504	108	1612.1437461827
5	17745	109	1608.7682756467
5	17986	110	1605.3903630848
5	18227	111	1602.015738199
5	18557	112	1598.6315652172
5	19032	113	1595.2562802649
5	19579	114	1591.8793699372
5	19840	115	1588.5035228384
5	20101	116	1582.8443446104
5	20362	117	1579.6125947287
5	20623	118	1573.2433750683
5	20884	119	1569.9632031642
5	21145	120	1566.6860264808
5	21406	121	1563.4094986333
5	21686	122	1557.8311811534
5	21967	123	1554.7487795376
5	22249	124	1551.6637709773
5	22530	125	1548.578042625
5	22811	126	1545.496987074
5	23092	127	1542.416810043
5	23373	128	1538.0165042833
5	23654	129	1536.3996477876
5	23935	130	1534.0274594372
5	24216	131	1529.2480908298
5	24516	132	1526.7462490865
5	24817	133	1524.2463120968
5	25118	134	1521.7467729665
5	25419	135	1519.2467928928
5	25720	136	1516.7727393976
5	26021	137	1514.7440800163
5	26322	138	1513.266307947
5	26623	139	1512.278620639
5	26924	140	1511.6909816496
5	27225	141	1511.3888486047
5	27526	142	1511.2562726251
5	27827	143	1511.2053267906
5	28128	144	1511.1869485791
5	28429	145	1511.1803518059
5	28730	146	1511.1779897272
5	29031	147	1511.1771416292
5	29332	148	1511.1768417816
5	29633	149	1511.1767318834
5	29934	150	1511.1766926662
5	30235	151	1511.1766787009
5	30555	152	1511.1766736602
5	30876	153	1511.1766725568
5	31197	154	1511.1766725568
5	31518	155	1511.1766725568
5	31839	156	1511.1766725568
5	32160	157	1511.1766725568
5	32481	158	1511.1766725568
5	32802	159	1511.1766725568
5	33123	160	1511.1766725568
5	33444	161	1511.1766725568
5	33784	162	1511.1766725568
5	34125	163	1511.1766725568
5	34466	164	1511.1766725568
5	34807	165	1511.1766725568
5	35148	166	1511.1766725568
5	35489	167	1511.1766725568
5	35830	168	1511.1766725568
5	36171	169	1511.1766725568
5	36512	170	1511.1766725568
5	36853	171	1511.1766725568
5	37213	172	1511.1766725568
5	37574	173	1511.1766725568
5	37936	174	1511.1766725568
5	38297	175	1511.1766725568
5	38658	176	1511.1766725568
5	39019	177	1511.1766725568
5	39380	178	1511.1766725568
5	39721	179	1511.1766725568
5	40062	180	1511.1766725568
5	40403	181	1511.1766725568
5	40763	182	1511.1766725568
5	41124	183	1511.1766725568
5	41485	184	1511.1766725568
5	41846	185	1511.1766725568
5	42207	186	1511.1766725568
5	42568	187	1511.1766725568
5	43348	188	1511.1766725568
5	44533	189	1511.1766725568
5	45718	190	1511.1766725568
5	46587	191	1511.1766725568
5	47496	192	1511.1766725568
5	48084	193	1511.1766725568
5	48779	194	1511.1766725568
5	49262	195	1511.1766725568
5	49950	196	1511.1766725568
5	50331	197	1511.1766725568
5	50712	198	1511.1766725568
5	51195	199	1511.1766725568
5	51576	200	1511.1766725568
6	430	11	1851.2288472272
6	490	12	1840.1490373833
6	551	13	1840.844499349
6	612	14	1848.3813102444
6	673	15	1855.9046819716
6	734	16	1863.4243395269
6	795	17	1870.949408431
6	856	18	1878.4812299793
6	917	19	1888.20095828
6	978	20	1892.2834204827
6	1039	21	1894.9791036562
6	1119	22	1908.079254469
6	1200	23	1914.7366888934
6	1281	24	1922.0932365809
6	1362	25	1929.4453308999
6	1443	26	1935.1084299154
6	1524	27	1943.2495430372
6	1605	28	1947.4355698913
6	1686	29	1964.167837912
6	1767	30	1971.1883828433
6	1848	31	1978.5347862739
6	1948	32	1985.885848775
6	2049	33	1993.2405053341
6	2150	34	2000.5944163893
6	2251	35	2008.0304041844
6	2352	36	2026.9883219828
6	2453	37	2034.3221286864
6	2554	38	2041.7212540788
6	2655	39	2049.0978565368
6	2756	40	2056.4832150158
6	2857	41	2063.8758686939
6	2977	42	2082.5505280806
6	3098	43	2089.7913122641
6	3219	44	2097.0195253906
6	3340	45	2104.2551969047
6	3461	46	2109.9213256928
6	3582	47	2118.0319440537
6	3703	48	2125.508073299
6	3824	49	2135.5215569106
6	3945	50	2146.2951093152
6	4066	51	2152.9174672787
6	4206	52	2159.5263460266
6	4347	53	2166.1428250492
6	4488	54	2172.6614338463
6	4629	55	2169.623576162
6	4770	56	2159.5715801329
6	4911	57	2148.8442362407
6	5052	58	2137.9666888821
6	5193	59	2126.9692808401
6	5334	60	2115.8798299209
6	5475	61	2104.6008125092
6	5635	62	2093.093926124
6	5796	63	2081.5145090163
6	5957	64	2069.9283492566
6	6118	65	2058.2348898449
6	6279	66	2046.1626922465
6	6440	67	2034.1021425543
6	6601	68	2022.0253639161
6	6762	69	2009.9042014897
6	6923	70	1997.7725726551
6	7084	71	1985.6249679228
6	7264	72	1973.4805078862
6	7445	73	1953.8648340219
6	7627	74	1946.3915110769
6	7808	75	1938.9115257181
6	7989	76	1931.7297612432
6	8170	77	1926.5738308313
6	8351	78	1923.7277341439
6	8532	79	1923.116986032
6	8713	80	1923.116986032
6	9213	81	1923.116986032
6	9941	82	1923.116986032
6	10847	83	1923.116986032
6	11337	84	1923.116986032
6	11768	85	1923.116986032
6	12317	86	1923.116986032
6	12691	87	1923.116986032
6	13006	88	1923.116986032
6	13207	89	1921.577798137
6	13408	90	1921.577798137
6	13609	91	1908.9963994853
6	13829	92	1907.1569447186
6	14050	93	1904.2148402708
6	14271	94	1900.2235014852
6	14492	95	1895.0818302841
6	14713	96	1888.7243256784
6	14934	97	1881.2370820427
6	15155	98	1872.9424612341
6	15376	99	1864.6451734955
6	15597	100	1856.3503072632
6	15818	101	1817.1424784878
6	16058	102	1804.2761422079
6	16299	103	1791.2850822257
6	16540	104	1778.2705178378
6	16781	105	1765.2867989456
6	17022	106	1752.347736368
6	17263	107	1739.4810569441
6	17504	108	1726.642888414
6	17745	109	1713.8251487126
6	17986	110	1700.9981358592
6	18227	111	1688.1836073617
6	18557	112	1675.3328216945
6	19032	113	1662.5157867137
6	19579	114	1649.6925796633
6	19840	115	1636.8734100329
6	20101	116	1615.4129545513
6	20362	117	1603.4298780991
6	20623	118	1592.2817442407
6	20884	119	1580.3021663947
6	21145	120	1568.3335274512
6	21406	121	1556.3672581332
6	21686	122	1535.4232119595
6	21967	123	1523.6747418539
6	22249	124	1511.9163354669
6	22530	125	1500.1551856172
6	22811	126	1488.411845992
6	23092	127	1476.6718548166
6	23373	128	1451.6138772635
6	23654	129	1441.4153770229
6	23935	130	1431.3877098915
6	24216	131	1414.0874643198
6	24516	132	1404.6516535315
6	24817	133	1395.2230266087
6	25118	134	1385.8000425875
6	25419	135	1376.3769021223
6	25720	136	1367.0514863523
6	26021	137	1359.4048884824
6	26322	138	1353.8347425715
6	26623	139	1350.1118664028
6	26924	140	1347.8968868522
6	27225	141	1346.7580609267
6	27526	142	1346.2583441124
6	27827	143	1346.0663146799
6	28128	144	1345.9970419407
6	28429	145	1345.972176814
6	28730	146	1345.9632734634
6	29031	147	1345.9600767395
6	29332	148	1345.958946528
6	29633	149	1345.9585322902
6	29934	150	1345.9583844692
6	30235	151	1345.9583318302
6	30555	152	1345.9583128301
6	30876	153	1345.9583086712
6	31197	154	1345.9583086712
6	31518	155	1345.9583086712
6	31839	156	1345.9583086712
6	32160	157	1345.9583086712
6	32481	158	1345.9583086712
6	32802	159	1345.9583086712
6	33123	160	1345.9583086712
6	33444	161	1345.9583086712
6	33784	162	1345.9583086712
6	34125	163	1345.9583086712
6	34466	164	1345.9583086712
6	34807	165	1345.9583086712
6	35148	166	1345.9583086712
6	35489	167	1345.9583086712
6	35830	168	1345.9583086712
6	36171	169	1345.9583086712
6	36512	170	1345.9583086712
6	36853	171	1345.9583086712
6	37213	172	1345.9583086712
6	37574	173	1345.9583086712
6	37936	174	1345.9583086712
6	38297	175	1345.9583086712
6	38658	176	1345.9583086712
6	39019	177	1345.9583086712
6	39380	178	1345.9583086712
6	39721	179	1345.9583086712
6	40062	180	1345.9583086712
6	40403	181	1345.9583086712
6	40763	182	1345.9583086712
6	41124	183	1345.9583086712
6	41485	184	1345.9583086712
6	41846	185	1345.9583086712
6	42207	186	1345.9583086712
6	42568	187	1345.9583086712
6	43348	188	1345.9583086712
6	44533	189	1345.9583086712
6	45718	190	1345.9583086712
6	46587	191	1345.9583086712
6	47496	192	1345.9583086712
6	48084	193	1345.9583086712
6	48779	194	1345.9583086712
6	49262	195	1345.9583086712
6	49950	196	1345.9583086712
6	50331	197	1345.9583086712
6	50712	198	1345.9583086712
6	51195	199	1345.9583086712
6	51576	200	1345.9583086712
7	490	12	14.509134987205
7	551	13	14.440604182083
7	612	14	14.530936472748
7	673	15	14.444677900517
7	734	16	14.497765314685
7	795	17	14.511804929345
7	856	18	14.51699214497
7	917	19	13.590144226769
7	978	20	9.11182014782
7	1039	21	7.4531403068034
7	1119	22	9.5354386191838
7	1200	23	11.26493633087
7	1281	24	11.615353674146
7	1362	25	11.334486381333
7	1443	26	6.89148486183
7	1524	27	8.5039957933684
7	1605	28	10.659370615622
7	1686	29	11.604116373295
7	1767	30	11.623755635549
7	1848	31	11.559942734367
7	1948	32	11.561691307551
7	2049	33	11.639218857179
7	2150	34	11.64322492213
7	2251	35	11.624001412152
7	2352	36	11.585444849366
7	2453	37	11.573065705569
7	2554	38	11.5993613589
7	2655	39	11.624048288329
7	2756	40	11.579529193397
7	2857	41	11.579342072091
7	2977	42	11.636477634967
7	3098	43	11.57656699057
7	3219	44	11.532860469171
7	3340	45	11.458863338797
7	3461	46	7.0144690522795
7	3582	47	8.0124344893133
7	3703	48	10.056328800261
7	3824	49	11.591264705381
7	3945	50	11.600132485423
7	4066	51	11.611478409653
7	4206	52	11.546994539008
7	4347	53	11.611539947491
7	4488	54	11.518629238773
7	4629	55	12.649217258487
7	4770	56	14.458005626487
7	4911	57	14.532286311285
7	5052	58	14.55003048815
7	5193	59	14.510944409903
7	5334	60	14.465870013215
7	5475	61	14.436977953903
7	5635	62	14.451953392719
7	5796	63	14.512406919677
7	5957	64	14.560460180809
7	6118	65	14.498346815772
7	6279	66	14.473503341239
7	6440	67	14.529612136955
7	6601	68	14.452733814874
7	6762	69	14.536536955285
7	6923	70	14.542985063588
7	7084	71	14.534886039874
7	7264	72	14.557103015361
7	7445	73	14.527362836007
7	7627	74	14.463388779575
7	7808	75	14.517759565936
7	7989	76	12.424331118503
7	8170	77	7.9856798254914
7	8351	78	3.4856798254914
7	8532	79	0
7	8713	80	0
7	9213	81	0
7	9941	82	0
7	10847	83	0
7	11337	84	0
7	11768	85	0
7	12317	86	0
7	12691	87	0
7	13006	88	0
7	13207	89	0
7	13408	90	0
7	13609	91	2.319381892045
7	13829	92	4.544173957975
7	14050	93	6.4227201173402
7	14271	94	8.2771848484821
7	14492	95	10.408547568847
7	14713	96	12.371067869625
7	14934	97	14.318353954916
7	15155	98	14.49731404974
7	15376	99	14.520071758578
7	15597	100	14.479027847353
7	15818	101	14.439447486092
7	16058	102	14.462729116808
7	16299	103	14.489846473403
7	16540	104	14.46808979846
7	16781	105	14.521158863873
7	17022	106	14.557477972206
7	17263	107	14.467361739978
7	17504	108	14.547445881717
7	17745	109	14.452135231142
7	17986	110	14.492960048929
7	18227	111	14.432383288449
7	18557	112	14.533598041946
7	19032	113	14.486888296429
7	19579	114	14.438045727219
7	19840	115	14.459701168771
7	20101	116	14.499903697548
7	20362	117	14.435837726208
7	20623	118	14.529022188286
7	20884	119	14.538528016032
7	21145	120	14.459406939847
7	21406	121	14.449010697819
7	21686	122	14.555047085058
7	21967	123	14.543265025426
7	22249	124	14.476752003684
7	22530	125	14.52390884567
7	22811	126	14.443029851424
7	23092	127	14.448449988658
7	23373	128	14.515112367008
7	23654	129	14.543080932099
7	23935	130	14.484406202451
7	24216	131	14.512050446127
7	24516	132	14.517004741052
7	24817	133	14.516831257531
7	25118	134	14.5601307435
7	25419	135	14.457739373412
7	25720	136	13.568202442361
7	26021	137	10.309125390295
7	26322	138	7.214102291305
7	26623	139	4.6416363901827
7	26924	140	2.5483315186154
7	27225	141	1.1994953140949
7	27526	142	0.4844499339936
7	27827	143	0.18143456819256
7	28128	144	0.063016229964442
7	28429	145	0.023247270538112
7	28730	146	0.0083735187862982
7	29031	147	0.0029169763983917
7	29332	148	0.0010436781101546
7	29633	149	0.00038982285523566
7	29934	150	0.00013496085296047
7	30235	151	4.8291950742815e-05
7	30555	152	1.7692303855381e-05
7	30876	153	0
7	31197	154	0
7	31518	155	0
7	31839	156	0
7	32160	157	0
7	32481	158	0
7	32802	159	0
7	33123	160	0
7	33444	161	0
7	33784	162	0
7	34125	163	0
7	34466	164	0
7	34807	165	0
7	35148	166	0
7	35489	167	0
7	35830	168	0
7	36171	169	0
7	36512	170	0
7	36853	171	0
7	37213	172	0
7	37574	173	0
7	37936	174	0
7	38297	175	0
7	38658	176	0
7	39019	177	0
7	39380	178	0
7	39721	179	0
7	40062	180	0
7	40403	181	0
7	40763	182	0
7	41124	183	0
7	41485	184	0
7	41846	185	0
7	42207	186	0
7	42568	187	0
7	43348	188	0
7	44533	189	0
7	45718	190	0
7	46587	191	0
7	47496	192	0
7	48084	193	0
7	48779	194	0
7	49262	195	0
7	49950	196	0
7	50331	197	0
7	50712	198	0
7	51195	199	0
7	51576	200	0
8	551	13	-0.068530805122572
8	612	14	0.090332290665247
8	673	15	-0.086258572230582
8	734	16	0.053087414167821
8	795	17	0.01403961465927
8	856	18	0.0051872156257726
8	917	19	-0.92684791820135
8	978	20	-4.4783240789489
8	1039	21	-1.6586798410167
8	1119	22	2.0822983123804
8	1200	23	1.7294977116864
8	1281	24	0.35041734327556
8	1362	25	-0.28086729281308
8	1443	26	-4.4430015195027
8	1524	27	1.6125109315384
8	1605	28	2.1553748222534
8	1686	29	0.94474575767306
8	1767	30	0.01963926225435
8	1848	31	-0.0638129011821
8	1948	32	0.0017485731840132
8	2049	33	0.077527549627701
8	2150	34	0.0040060649509552
8	2251	35	-0.019223509978037
8	2352	36	-0.038556562785525
8	2453	37	-0.012379143796862
8	2554	38	0.026295653330163
8	2655	39	0.02468692942988
8	2756	40	-0.044519094931893
8	2857	41	-0.00018712130608023
8	2977	42	0.057135562875773
8	3098	43	-0.059910644397604
8	3219	44	-0.043706521398853
8	3340	45	-0.07399713037398
8	3461	46	-4.4443942865173
8	3582	47	0.99796543703384
8	3703	48	2.0438943109475
8	3824	49	1.5349359051199
8	3945	50	0.0088677800423458
8	4066	51	0.011345924229827
8	4206	52	-0.064483870645054
8	4347	53	0.064545408482664
8	4488	54	-0.092910708717536
8	4629	55	1.1305880197138
8	4770	56	1.8087883680004
8	4911	57	0.074280684797559
8	5052	58	0.017744176865088
8	5193	59	-0.039086078247054
8	5334	60	-0.045074396687561
8	5475	61	-0.028892059312202
8	5635	62	0.014975438816473
8	5796	63	0.060453526957428
8	5957	64	0.048053261132445
8	6118	65	-0.062113365037368
8	6279	66	-0.024843474533409
8	6440	67	0.056108795716428
8	6601	68	-0.076878322081175
8	6762	69	0.083803140411618
8	6923	70	0.0064481083024308
8	7084	71	-0.0080990237137311
8	7264	72	0.022216975486371
8	7445	73	-0.029740179353393
8	7627	74	-0.063974056432489
8	7808	75	0.054370786361396
8	7989	76	-2.0934284474331
8	8170	77	-4.4386512930115
8	8351	78	-4.5
8	8532	79	-3.4856798254914
8	8713	80	0
8	9213	81	0
8	9941	82	0
8	10847	83	0
8	11337	84	0
8	11768	85	0
8	12317	86	0
8	12691	87	0
8	13006	88	0
8	13207	89	0
8	13408	90	0
8	13609	91	2.319381892045
8	13829	92	2.2247920659299
8	14050	93	1.8785461593652
8	14271	94	1.8544647311419
8	14492	95	2.1313627203647
8	14713	96	1.9625203007786
8	14934	97	1.9472860852908
8	15155	98	0.1789600948242
8	15376	99	0.022757708837744
8	15597	100	-0.041043911224696
8	15818	101	-0.039580361261033
8	16058	102	0.023281630715354
8	16299	103	0.027117356595118
8	16540	104	-0.021756674943028
8	16781	105	0.053069065413439
8	17022	106	0.036319108332972
8	17263	107	-0.090116232228464
8	17504	108	0.080084141739643
8	17745	109	-0.095310650574975
8	17986	110	0.040824817786925
8	18227	111	-0.060576760480181
8	18557	112	0.10121475349646
8	19032	113	-0.046709745516999
8	19579	114	-0.048842569210102
8	19840	115	0.021655441552866
8	20101	116	0.040202528776135
8	20362	117	-0.064065971339586
8	20623	118	0.093184462077915
8	20884	119	0.0095058277458886
8	21145	120	-0.079121076185256
8	21406	121	-0.010396242027637
8	21686	122	0.10603638723958
8	21967	123	-0.011782059632242
8	22249	124	-0.066513021741994
8	22530	125	0.047156841985416
8	22811	126	-0.080878994246014
8	23092	127	0.005420137234033
8	23373	128	0.066662378350738
8	23654	129	0.027968565090559
8	23935	130	-0.058674729648045
8	24216	131	0.027644243675748
8	24516	132	0.0049542949255557
8	24817	133	-0.00017348352121083
8	25118	134	0.043299485968891
8	25419	135	-0.10239137008786
8	25720	136	-0.8895369310508
8	26021	137	-3.2590770520664
8	26322	138	-3.0950230989898
8	26623	139	-2.5724659011224
8	26924	140	-2.0933048715673
8	27225	141	-1.3488362045205
8	27526	142	-0.71504538010133
8	27827	143	-0.30301536580104
8	28128	144	-0.11841833822811
8	28429	145	-0.03976895942633
8	28730	146	-0.014873751751814
8	29031	147	-0.0054565423879064
8	29332	148	-0.0018732982882371
8	29633	149	-0.00065385525491899
8	29934	150	-0.00025486200227519
8	30235	151	-8.6668902217656e-05
8	30555	152	-3.0599646887434e-05
8	30876	153	-1.7692303855381e-05
8	31197	154	0
8	31518	155	0
8	31839	156	0
8	32160	157	0
8	32481	158	0
8	32802	159	0
8	33123	160	0
8	33444	161	0
8	33784	162	0
8	34125	163	0
8	34466	164	0
8	34807	165	0
8	35148	166	0
8	35489	167	0
8	35830	168	0
8	36171	169	0
8	36512	170	0
8	36853	171	0
8	37213	172	0
8	37574	173	0
8	37936	174	0
8	38297	175	0
8	38658	176	0
8	39019	177	0
8	39380	178	0
8	39721	179	0
8	40062	180	0
8	40403	181	0
8	40763	182	0
8	41124	183	0
8	41485	184	0
8	41846	185	0
8	42207	186	0
8	42568	187	0
8	43348	188	0
8	44533	189	0
8	45718	190	0
8	46587	191	0
8	47496	192	0
8	48084	193	0
8	48779	194	0
8	49262	195	0
8	49950	196	0
8	50331	197	0
8	50712	198	0
8	51195	199	0
8	51576	200	0
9	551	13	1.8462966701497
9	612	14	2.4107470721803
9	673	15	1.7849480737356
9	734	16	2.2763559493872
9	795	17	2.1414678183161
9	856	18	2.1110674899805
9	917	19	0.973
9	978	20	0.973
9	1039	21	0.973
9	1119	22	6.4352888742146
9	1200	23	6.4808030325316
9	1281	24	2.7960151568695
9	1362	25	0.973
9	1443	26	0.973
9	1524	27	4.8818264516622
9	1605	28	7.2730521928078
9	1686	29	4.456198429731
9	1767	30	1.8708274534654
9	1848	31	1.6325775089718
9	1948	32	1.8153781044661
9	2049	33	2.0346060108355
9	2150	34	1.828722018102
9	2251	35	1.7619801146034
9	2352	36	1.7048801025462
9	2453	37	1.7769496445499
9	2554	38	1.8872312828723
9	2655	39	1.8849944274683
9	2756	40	1.6877903233068
9	2857	41	1.8114901069524
9	2977	42	1.9771325580701
9	3098	43	1.6446274669677
9	3219	44	1.6865709901501
9	3340	45	1.5974205263696
9	3461	46	0.973
9	3582	47	3.4711066941936
9	3703	48	6.642597715594
9	3824	49	6.100866386685
9	3945	50	1.8385802050363
9	4066	51	1.8465100656139
9	4206	52	1.6298058343633
9	4347	53	1.9953879345785
9	4488	54	1.5489201310147
9	4629	55	5.3537185674383
9	4770	56	8.3891477558702
9	4911	57	2.3547033358969
9	5052	58	2.1586682529904
9	5193	59	1.9555853174873
9	5334	60	1.9303363968377
9	5475	61	1.9838876700756
9	5635	62	2.1381587492037
9	5796	63	2.3038662278104
9	5957	64	2.2661850648506
9	6118	65	1.8739020896341
9	6279	66	2.0016323981133
9	6440	67	2.2907386264619
9	6601	68	1.8183077411442
9	6762	69	2.3885934041265
9	6923	70	2.1182939606171
9	7084	71	2.0664589679867
9	7264	72	2.1751465772605
9	7445	73	1.9899027573377
9	7627	74	1.8642216800769
9	7808	75	2.2832327893803
9	7989	76	0.973
9	8170	77	0.973
9	8351	78	0.973
9	8532	79	0.973
9	8713	80	0.973
9	9213	81	0.973
9	9941	82	0.973
9	10847	83	0.973
9	11337	84	0.973
9	11768	85	0.973
9	12317	86	0.973
9	12691	87	0.973
9	13006	88	0.973
9	13207	89	0.973
9	13408	90	0.973
9	13609	91	2.5195069103413
9	13829	92	3.7743512861462
9	14050	93	4.352063078428
9	14271	94	5.2609671677117
9	14492	95	7.0627164890444
9	14713	96	7.7327938193921
9	14934	97	8.7914393196164
9	15155	98	2.7160827248823
9	15376	99	2.1728848844247
9	15597	100	1.9456561280624
9	15818	101	1.946937980822
9	16058	102	2.1682930303194
9	16299	103	2.1847227920844
9	16540	104	2.0118525768827
9	16781	105	2.2790844142388
9	17022	106	2.2246639424455
9	17263	107	1.7734342700402
9	17504	108	2.3769407359334
9	17745	109	1.7540561585504
9	17986	110	2.2329520124286
9	18227	111	1.8732268346179
9	18557	112	2.4492060671696
9	19032	113	1.9266331460093
9	19579	114	1.9145742502867
9	19840	115	2.1622875583998
9	20101	116	2.2315851098498
9	20362	117	1.8614034100173
9	20623	118	2.4204879118513
9	20884	119	2.1285244535574
9	21145	120	1.8110771287423
9	21406	121	2.0494863166173
9	21686	122	2.4689345797016
9	21967	123	2.0544289055637
9	22249	124	1.8565775391454
9	22530	125	2.2587186477621
9	22811	126	1.8035326204621
9	23092	127	2.1045020738128
9	23373	128	2.3259135396671
9	23654	129	2.1937310260518
9	23935	130	1.8846303390469
9	24216	131	2.189075708159
9	24516	132	2.110253953103
9	24817	133	2.0922954232254
9	25118	134	2.249465045329
9	25419	135	1.7298508329873
9	25720	136	0.973
9	26021	137	0.973
9	26322	138	0.973
9	26623	139	0.973
9	26924	140	0.973
9	27225	141	0.973
9	27526	142	0.973
9	27827	143	0.973
9	28128	144	0.973
9	28429	145	1.1108986402295
9	28730	146	1.1103739231013
9	29031	147	1.1101368790419
9	29332	148	1.1100498758481
9	29633	149	1.1100187436266
9	29934	150	1.110006502222
9	30235	151	1.110002328595
9	30555	152	1.1100008533463
9	30876	153	0.973
9	31197	154	0.973
9	31518	155	0.973
9	31839	156	0.973
9	32160	157	0.973
9	32481	158	0.973
9	32802	159	0.973
9	33123	160	0.973
9	33444	161	0.973
9	33784	162	0.973
9	34125	163	0.973
9	34466	164	0.973
9	34807	165	0.973
9	35148	166	0.973
9	35489	167	0.973
9	35830	168	0.973
9	36171	169	0.973
9	36512	170	0.973
9	36853	171	0.973
9	37213	172	0.973
9	37574	173	0.973
9	37936	174	0.973
9	38297	175	0.973
9	38658	176	0.973
9	39019	177	0.973
9	39380	178	0.973
9	39721	179	0.973
9	40062	180	0.973
9	40403	181	0.973
9	40763	182	0.973
9	41124	183	0.973
9	41485	184	0.973
9	41846	185	0.973
9	42207	186	0.973
9	42568	187	0.973
9	43348	188	0.973
9	44533	189	0.973
9	45718	190	0.973
9	46587	191	0.973
9	47496	192	0.973
9	48084	193	0.973
9	48779	194	0.973
9	49262	195	0.973
9	49950	196	0.973
9	50331	197	0.973
9	50712	198	0.973
9	51195	199	0.973
9	51576	200	0.973
10	1039	21	1235.0341216573
10	1119	22	1241.7409968954
10	1200	23	1248.4311064255
10	1281	24	1255.1197265568
10	1362	25	1261.8023001943
10	1443	26	1273.0193297049
10	1524	27	1278.9531164168
10	1605	28	1284.879954156
10	1686	29	1290.8086306784
10	1767	30	1304.4904396221
10	1848	31	1310.4661015784
10	1948	32	1329.7387820044
10	2049	33	1337.1371608946
10	2150	34	1353.4928178737
10	2251	35	1362.471936682
10	2352	36	1371.4429292021
10	2453	37	1392.2336745001
10	2554	38	1400.3880316779
10	2655	39	1408.5454788926
10	2756	40	1416.7180613453
10	2857	41	1424.8920509939
10	2977	42	1456.0153579406
10	3098	43	1464.3066210087
10	3219	44	1472.5960683739
10	3340	45	1480.8797214545
10	3461	46	1497.3859611923
10	3582	47	1507.3137265441
10	3703	48	1517.2206245813
10	3824	49	1527.1386073741
10	3945	50	1544.5604407234
10	4066	51	1552.3343142067
10	4206	52	1567.9021162518
10	4347	53	1574.8688491337
10	4488	54	1591.3210856686
10	4629	55	1599.3082604818
10	4770	56	1607.1922097751
10	4911	57	1613.0669788811
10	5052	58	1616.9990674996
10	5193	59	1631.168335443
10	5334	60	1628.8991582602
10	5475	61	1626.216287759
10	5635	62	1623.6504286738
10	5796	63	1621.0898376145
10	5957	64	1618.3836458705
10	6118	65	1615.4520454581
10	6279	66	1612.2610954771
10	6440	67	1608.9454051263
10	6601	68	1605.6266107794
10	6762	69	1602.3070904191
10	6923	70	1598.9952869641
10	7084	71	1595.6778219843
10	7264	72	1595.4552865379
10	7445	73	1592.1400080793
10	7627	74	1588.8248705005
10	7808	75	1583.201542559
10	7989	76	1580.0394031716
10	8170	77	1576.8186058265
10	8351	78	1573.5882651646
10	8532	79	1570.367419512
10	8713	80	1567.1476153351
10	9213	81	1561.5968726881
10	9941	82	1558.5707760859
10	10847	83	1555.5467834709
10	11337	84	1552.5219697896
10	11768	85	1549.4943396361
10	12317	86	1546.4817935435
10	12691	87	1550.5022468415
10	13006	88	1552.8227676707
10	13207	89	1562.1521767642
10	13408	90	1564.8995808997
10	13609	91	1569.2358488055
10	13829	92	1573.5876099255
10	14050	93	1582.1089520358
10	14271	94	1590.3240673641
10	14492	95	1593.2308390928
10	14713	96	1601.97479362
10	14934	97	1608.0514571434
10	15155	98	1610.4241236647
10	15376	99	1623.9578641422
10	15597	100	1627.7618476256
10	15818	101	1631.5567812242
10	16058	102	1640.9551013546
10	16299	103	1647.8738622199
10	16540	104	1653.6110503762
10	16781	105	1659.3494908687
10	17022	106	1665.0851349344
10	17263	107	1670.8207567216
10	17504	108	1676.5517888566
10	17745	109	1683.2946750974
10	17986	110	1692.3279534413
10	18227	111	1696.8971635611
10	18557	112	1701.4756325614
10	19032	113	1709.8371938696
10	19579	114	1716.9399372418
10	19840	115	1723.9567073066
10	20101	116	1729.6481673369
10	20362	117	1735.35249753
10	20623	118	1741.0556880684
10	20884	119	1746.7488665817
10	21145	120	1752.4385947959
10	21406	121	1758.1286428247
10	21686	122	1763.8210165509
10	21967	123	1774.2985271153
10	22249	124	1774.854053627
10	22530	125	1782.9677280307
10	22811	126	1790.8600888023
10	23092	127	1800.0507317766
10	23373	128	1810.4154034778
10	23654	129	1820.9527520863
10	23935	130	1831.4771524211
10	24216	131	1842.0140203606
10	24516	132	1852.5402036521
10	24817	133	1875.1495586025
10	25118	134	1886.7653943768
10	25419	135	1898.5247460238
10	25720	136	1910.5346202316
10	26021	137	1922.7284722111
10	26322	138	1935.0383994761
10	26623	139	1947.5365120658
10	26924	140	1960.1568380551
10	27225	141	1972.8660459152
10	27526	142	1999.154889386
10	27827	143	2008.6313345823
10	28128	144	2018.1086980798
10	28429	145	2037.0176604593
10	28730	146	2047.2934718105
10	29031	147	2057.5566705769
10	29332	148	2067.8326725356
10	29633	149	2094.8205821302
10	29934	150	2106.3156485731
10	30235	151	2117.799266261
10	30555	152	2135.8389217911
10	30876	153	2148.2362400705
10	31197	154	2160.6340940661
10	31518	155	2172.5725225807
10	31839	156	2183.6885587952
10	32160	157	2194.1740350548
10	32481	158	2202.5883811469
10	32802	159	2195.7948661276
10	33123	160	2188.4888523682
10	33444	161	2181.1849608933
10	33784	162	2173.8783041336
10	34125	163	2166.5718211844
10	34466	164	2154.2136272697
10	34807	165	2147.3187261416
10	35148	166	2140.4220520399
10	35489	167	2133.5160826316
10	35830	168	2122.1980541247
10	36171	169	2114.7892377013
10	36512	170	2107.3858531517
10	36853	171	2099.992585945
10	37213	172	2092.6031177582
10	37574	173	2085.3782230199
10	37936	174	2075.4523586406
10	38297	175	2074.5688649033
10	38658	176	2078.3508531258
10	39019	177	2082.6131910956
10	39380	178	2087.6966433816
10	39721	179	2093.5382505406
10	40062	180	2122.7126197326
10	40403	181	2130.4591626708
10	40763	182	2138.2036345439
10	41124	183	2150.8279445461
10	41485	184	2159.8637284782
10	41846	185	2168.9145542171
10	42207	186	2188.5816922414
10	42568	187	2195.4286165091
10	43348	188	2200.3817930054
10	44533	189	2209.5465861556
10	45718	190	2206.9236876844
10	46587	191	2204.9438147353
10	47496	192	2203.6670963288
10	48084	193	2202.2904991094
10	48779	194	2201.8209666294
10	49262	195	2186.8763164102
10	49950	196	2186.8671425058
10	50331	197	2186.857980081
10	50712	198	2186.8488075444
10	51195	199	2186.8396219501
10	51576	200	2186.8304465531
11	1039	21	1756.3429304477
11	1119	22	1745.7610513975
11	1200	23	1735.2056247098
11	1281	24	1724.6525479446
11	1362	25	1714.1090111312
11	1443	26	1696.4029775175
11	1524	27	1687.0406607218
11	1605	28	1677.6893080013
11	1686	29	1668.3350540524
11	1767	30	1670.141352245
11	1848	31	1674.1088798408
11	1948	32	1686.9007461572
11	2049	33	1691.8163867549
11	2150	34	1702.6796800552
11	2251	35	1708.6437022563
11	2352	36	1714.6023268939
11	2453	37	1728.4116037131
11	2554	38	1733.8294570513
11	2655	39	1739.2493634474
11	2756	40	1744.6793258782
11	2857	41	1750.110223267
11	2977	42	1770.7809875777
11	3098	43	1776.2906806087
11	3219	44	1781.7991670724
11	3340	45	1787.3038031302
11	3461	46	1798.2656135647
11	3582	47	1804.8605368062
11	3703	48	1811.4373183318
11	3824	49	1818.0203841262
11	3945	50	1829.5878507121
11	4066	51	1834.7537794921
11	4206	52	1845.0923849225
11	4347	53	1849.7206340399
11	4488	54	1857.1247252449
11	4629	55	1858.2171880746
11	4770	56	1857.5764847912
11	4911	57	1856.6850023522
11	5052	58	1855.9777492019
11	5193	59	1823.0528251553
11	5334	60	1813.8581842766
11	5475	61	1802.9980927723
11	5635	62	1790.49056565
11	5796	63	1777.7198190461
11	5957	64	1764.9888782551
11	6118	65	1752.2930166669
11	6279	66	1739.6669965617
11	6440	67	1727.0745317357
11	6601	68	1714.4702784263
11	6762	69	1701.8632678332
11	6923	70	1689.2855648196
11	7084	71	1676.6863602348
11	7264	72	1663.2714770921
11	7445	73	1650.6823059331
11	7627	74	1638.0936697398
11	7808	75	1616.7682055914
11	7989	76	1604.9881875594
11	8170	77	1593.2288162162
11	8351	78	1581.4346015113
11	8532	79	1569.6750537935
11	8713	80	1557.9193085811
11	9213	81	1537.187825233
11	9941	82	1525.6526053664
11	10847	83	1514.1254057184
11	11337	84	1502.5950762359
11	11768	85	1491.0540106041
11	12317	86	1479.5704441141
11	12691	87	1467.7672940184
11	13006	88	1467.3226433206
11	13207	89	1454.3840468795
11	13408	90	1447.2557348385
11	13609	91	1440.8821344796
11	13829	92	1434.4857616451
11	14050	93	1421.966305397
11	14271	94	1409.8982101881
11	14492	95	1405.6305407865
11	14713	96	1392.7926097364
11	14934	97	1383.8695629172
11	15155	98	1380.3862865347
11	15376	99	1360.5093926064
11	15597	100	1354.9216024523
11	15818	101	1349.3471059564
11	16058	102	1336.1089579927
11	16299	103	1326.3896408427
11	16540	104	1317.5971011812
11	16781	105	1308.8026422495
11	17022	106	1300.0124689873
11	17263	107	1291.2223298681
11	17504	108	1282.4392246299
11	17745	109	1272.2794756255
11	17986	110	1258.977899517
11	18227	111	1252.3254517704
11	18557	112	1245.6595237468
11	19032	113	1233.7208991255
11	19579	114	1223.4583425684
11	19840	115	1213.1074810231
11	20101	116	1204.7102449127
11	20362	117	1196.2940200376
11	20623	118	1187.8794766204
11	20884	119	1179.4706105747
11	21145	120	1171.0651468369
11	21406	121	1162.6627009701
11	21686	122	1154.263238767
11	21967	123	1138.3913464487
11	22249	124	1137.5125217213
11	22530	125	1132.2168038236
11	22811	126	1136.9696117883
11	23092	127	1143.102667314
11	23373	128	1150.0185506779
11	23654	129	1157.04952315
11	23935	130	1164.0718559767
11	24216	131	1171.1025077257
11	24516	132	1178.1260302178
11	24817	133	1191.6066267139
11	25118	134	1197.4143057664
11	25419	135	1202.893529455
11	25720	136	1207.8559653093
11	26021	137	1212.2845398212
11	26322	138	1216.3762398956
11	26623	139	1219.8573013378
11	26924	140	1222.8629242386
11	27225	141	1225.5253355385
11	27526	142	1228.9184349169
11	27827	143	1229.6065374566
11	28128	144	1230.2895147193
11	28429	145	1231.0203349844
11	28730	146	1230.7982184705
11	29031	147	1230.5763745837
11	29332	148	1230.4080544654
11	29633	149	1230.0896136017
11	29934	150	1229.9766862195
11	30235	151	1230.491876529
11	30555	152	1232.0330825599
11	30876	153	1235.581264693
11	31197	154	1239.1562602078
11	31518	155	1244.0253462403
11	31839	156	1250.3587865469
11	32160	157	1257.8841837941
11	32481	158	1270.9897745911
11	32802	159	1280.818351947
11	33123	160	1291.3885371199
11	33444	161	1301.9556518169
11	33784	162	1312.5267672689
11	34125	163	1323.0976312556
11	34466	164	1340.9661792141
11	34807	165	1350.9454387924
11	35148	166	1360.9272644648
11	35489	167	1370.9225435972
11	35830	168	1387.3002421091
11	36171	169	1398.0198605589
11	36512	170	1408.7316197758
11	36853	171	1419.4287404798
11	37213	172	1430.1203644833
11	37574	173	1440.5599834948
11	37936	174	1454.9192718189
11	38297	175	1456.1983597669
11	38658	176	1471.0030435998
11	39019	177	1473.9380745702
11	39380	178	1477.4385219777
11	39721	179	1481.4610321705
11	40062	180	1501.5390408046
11	40403	181	1506.869537593
11	40763	182	1512.1986092546
11	41124	183	1520.8916231142
11	41485	184	1527.1111469398
11	41846	185	1533.3410243635
11	42207	186	1546.8851567772
11	42568	187	1551.5985180857
11	43348	188	1555.0082403988
11	44533	189	1568.5015191255
11	45718	190	1573.6095240483
11	46587	191	1580.3479388981
11	47496	192	1587.6976663015
11	48084	193	1603.3264506373
11	48779	194	1608.6214753378
11	49262	195	1700.8799983152
11	49950	196	1700.9048989129
11	50331	197	1700.9297683515
11	50712	198	1700.9546652367
11	51195	199	1700.979597564
11	51576	200	1701.004502213
12	1119	22	14.261178893026
12	1200	23	14.215209755642
12	1281	24	14.214778152326
12	1362	25	14.18382554297
12	1443	26	14.257016509679
12	1524	27	14.253843451783
12	1605	28	14.25374565835
12	1686	29	14.192367650404
12	1767	30	14.263501251473
12	1848	31	14.240497681464
12	1948	32	14.279323756915
12	2049	33	14.230226849954
12	2150	34	14.254406708934
12	2251	35	14.181895370601
12	2352	36	14.302667716521
12	2453	37	14.243589520795
12	2554	38	14.196767704376
12	2655	39	14.260785168215
12	2756	40	14.29733339462
12	2857	41	14.274952332339
12	2977	42	14.206215021083
12	3098	43	14.241588738336
12	3219	44	14.269334187676
12	3340	45	14.18737585384
12	3461	46	14.215605139594
12	3582	47	14.272400520449
12	3703	48	14.183047879197
12	3824	49	14.220378899859
12	3945	50	14.181291467362
12	4066	51	14.209914388485
12	4206	52	14.238844991744
12	4347	53	14.216884845456
12	4488	54	14.250132847029
12	4629	55	14.300865965365
12	4770	56	12.931104490992
12	4911	57	8.4580579337185
12	5052	58	7.5080579337185
12	5193	59	9.3728123673085
12	5334	60	11.202541748843
12	5475	61	13.071291414412
12	5635	62	14.193385781865
12	5796	63	14.187893983909
12	5957	64	14.217175638299
12	6118	65	14.223912384727
12	6279	66	14.299246317387
12	6440	67	14.181051121078
12	6601	68	14.208424139799
12	6762	69	14.18967195917
12	6923	70	14.256416866054
12	7084	71	14.199816622677
12	7264	72	14.290821716379
12	7445	73	14.186063266111
12	7627	74	14.272500177967
12	7808	75	14.261048835556
12	7989	76	14.194994487847
12	8170	77	14.283558535376
12	8351	78	14.297169308794
12	8532	79	14.244805835663
12	8713	80	14.257603008282
12	9213	81	14.24160587174
12	9941	82	14.257359814659
12	10847	83	14.284940608922
12	11337	84	14.267548842736
12	11768	85	14.231407696315
12	12317	86	13.676825084297
12	12691	87	11.356401419209
12	13006	88	11.326290763155
12	13207	89	11.349920208447
12	13408	90	11.385376747772
12	13609	91	11.324690705523
12	13829	92	11.335086488628
12	14050	93	11.437800840924
12	14271	94	11.320260139487
12	14492	95	11.37839056401
12	14713	96	11.370351301857
12	14934	97	11.364312408431
12	15155	98	11.379067247191
12	15376	99	11.32448228612
12	15597	100	11.370040980565
12	15818	101	11.36548371514
12	16058	102	11.4047454253
12	16299	103	11.389344869384
12	16540	104	11.393694032312
12	16781	105	11.400553422884
12	17022	106	11.344223158722
12	17263	107	11.434574494548
12	17504	108	11.317550515507
12	17745	109	11.402694878371
12	17986	110	11.336073877837
12	18227	111	11.400430651221
12	18557	112	11.366256918865
12	19032	113	11.365095891708
12	19579	114	11.393610898964
12	19840	115	11.313447100517
12	20101	116	11.382605706814
12	20362	117	11.347587369952
12	20623	118	11.435662461724
12	20884	119	11.338357895738
12	21145	120	11.376962770554
12	21406	121	11.385111719037
12	21686	122	11.433263955083
12	21967	123	9.450721245568
12	22249	124	7.1297721865354
12	22530	125	9.3365848596767
12	22811	126	11.331961793881
12	23092	127	13.210940827788
12	23373	128	14.224955536188
12	23654	129	14.263850761904
12	23935	130	14.239273512478
12	24216	131	14.278018609056
12	24516	132	14.235559534417
12	24817	133	14.177181570999
12	25118	134	14.235406275933
12	25419	135	14.20874444889
12	25720	136	14.204188149316
12	26021	137	14.202735387498
12	26322	138	14.269131474484
[...]
70	32481	158	1424.375974948
70	32802	159	1416.71264534
70	33123	160	1409.2928709503
70	33444	161	1404.2069986188
70	33784	162	1401.9334557811
70	34125	163	1404.6546087305
70	34466	164	1406.9442659229
70	34807	165	1416.6221088174
70	35148	166	1418.9663245319
70	35489	167	1421.7607028268
70	35830	168	1424.045797029
70	36171	169	1437.1348038467
70	36512	170	1443.6938050882
70	36853	171	1451.6107255555
70	37213	172	1460.0347845474
70	37574	173	1467.8786736491
70	37936	174	1473.2024454948
70	38297	175	1485.2565783969
70	38658	176	1486.6146556773
70	39019	177	1487.4009912075
70	39380	178	1487.5652117543
70	39721	179	1487.5652117543
70	40062	180	1487.5652117543
70	40403	181	1487.5652117543
70	40763	182	1487.5652117543
70	41124	183	1487.5652117543
70	41485	184	1487.5652117543
70	41846	185	1487.5652117543
70	42207	186	1487.5652117543
70	42568	187	1487.5652117543
70	43348	188	1487.5652117543
70	44533	189	1487.5652117543
70	45718	190	1487.5652117543
70	46587	191	1487.5652117543
70	47496	192	1487.5652117543
70	48084	193	1487.5652117543
70	48779	194	1487.5652117543
70	49262	195	1487.5652117543
70	49950	196	1487.5652117543
70	50331	197	1487.5652117543
70	50712	198	1487.5652117543
70	51195	199	1487.5652117543
70	51576	200	1487.5652117543
71	30235	151	1404.4570613537
71	30555	152	1398.8126169177
71	30876	153	1393.1600328339
71	31197	154	1387.5922975706
71	31518	155	1370.9497504691
71	31839	156	1367.3277089085
71	32160	157	1362.9931723648
71	32481	158	1358.4650196794
71	32802	159	1353.9415386554
71	33123	160	1349.5618224783
71	33444	161	1346.5597531222
71	33784	162	1335.6523936682
71	34125	163	1331.4690222268
71	34466	164	1327.9490118904
71	34807	165	1312.748626196
71	35148	166	1308.9769550039
71	35489	167	1304.4810052287
71	35830	168	1300.8044562148
71	36171	169	1287.6004491815
71	36512	170	1285.8725127671
71	36853	171	1283.7868392535
71	37213	172	1281.5675626056
71	37574	173	1279.5011288438
71	37936	174	1278.0986075002
71	38297	175	1284.6840553062
71	38658	176	1289.6858500161
71	39019	177	1292.5819215079
71	39380	178	1293.1867453084
71	39721	179	1293.1867453084
71	40062	180	1293.1867453084
71	40403	181	1293.1867453084
71	40763	182	1293.1867453084
71	41124	183	1293.1867453084
71	41485	184	1293.1867453084
71	41846	185	1293.1867453084
71	42207	186	1293.1867453084
71	42568	187	1293.1867453084
71	43348	188	1293.1867453084
71	44533	189	1293.1867453084
71	45718	190	1293.1867453084
71	46587	191	1293.1867453084
71	47496	192	1293.1867453084
71	48084	193	1293.1867453084
71	48779	194	1293.1867453084
71	49262	195	1293.1867453084
71	49950	196	1293.1867453084
71	50331	197	1293.1867453084
71	50712	198	1293.1867453084
71	51195	199	1293.1867453084
71	51576	200	1293.1867453084
72	30555	152	8.5229384815831
72	30876	153	8.5451919406139
72	31197	154	7.7074968715929
72	31518	155	8.1451905550886
72	31839	156	10.0539581697
72	32160	157	11.403650527798
72	32481	158	11.401292328668
72	32802	159	11.435390025094
72	33123	160	9.8630491555323
72	33444	161	6.788707776574
72	33784	162	8.9991904611085
72	34125	163	10.990271330191
72	34466	164	6.5159776849196
72	34807	165	8.1536537186768
72	35148	166	10.174741560457
72	35489	167	11.486673309486
72	35830	168	6.9866733094861
72	36171	169	7.9615348854821
72	36512	170	9.7138997770098
72	36853	171	11.428785593976
72	37213	172	11.453626023339
72	37574	173	8.9961455466917
72	37936	174	7.3361455466917
72	38297	175	9.3684535791803
72	38658	176	7.9047709692323
72	39019	177	3.4210925720802
72	39380	178	0
72	39721	179	0
72	40062	180	0
72	40403	181	0
72	40763	182	0
72	41124	183	0
72	41485	184	0
72	41846	185	0
72	42207	186	0
72	42568	187	0
72	43348	188	0
72	44533	189	0
72	45718	190	0
72	46587	191	0
72	47496	192	0
72	48084	193	0
72	48779	194	0
72	49262	195	0
72	49950	196	0
72	50331	197	0
72	50712	198	0
72	51195	199	0
72	51576	200	0
73	30876	153	0.022253459030763
73	31197	154	-0.83769506902099
73	31518	155	0.43769368349574
73	31839	156	1.9087676146114
73	32160	157	1.3496923580975
73	32481	158	-0.0023581991298123
73	32802	159	0.034097696426324
73	33123	160	-1.5723408695617
73	33444	161	-3.0743413789583
73	33784	162	2.2104826845345
73	34125	163	1.9910808690828
73	34466	164	-4.4742936452717
73	34807	165	1.6376760337572
73	35148	166	2.0210878417804
73	35489	167	1.3119317490289
73	35830	168	-4.5
73	36171	169	0.97486157599604
73	36512	170	1.7523648915277
73	36853	171	1.7148858169664
73	37213	172	0.024840429362374
73	37574	173	-2.4574804766468
73	37936	174	-1.66
73	38297	175	2.0323080324886
73	38658	176	-1.463682609948
73	39019	177	-4.4836783971521
73	39380	178	-3.4210925720802
73	39721	179	0
73	40062	180	0
73	40403	181	0
73	40763	182	0
73	41124	183	0
73	41485	184	0
73	41846	185	0
73	42207	186	0
73	42568	187	0
73	43348	188	0
73	44533	189	0
73	45718	190	0
73	46587	191	0
73	47496	192	0
73	48084	193	0
73	48779	194	0
73	49262	195	0
73	49950	196	0
73	50331	197	0
73	50712	198	0
73	51195	199	0
73	51576	200	0
74	30876	153	1.6256905211483
74	31197	154	0.973
74	31518	155	2.4120329346025
74	31839	156	6.3138366944617
74	32160	157	5.5064392120418
74	32481	158	1.7904286172343
74	32802	159	1.8937560126542
74	33123	160	0.973
74	33444	161	0.973
74	33784	162	6.4055526604896
74	34125	163	7.0364881069898
74	34466	164	0.973
74	34807	165	4.7714916693878
74	35148	166	6.6540714543975
74	35489	167	5.4359312432804
74	35830	168	0.973
74	36171	169	3.4111795200255
74	36512	170	5.765646761931
74	36853	171	6.5226013931684
74	37213	172	1.869894455878
74	37574	173	0.973
74	37936	174	0.973
74	38297	175	6.2264323217981
74	38658	176	0.973
74	39019	177	0.973
74	39380	178	0.973
74	39721	179	0.973
74	40062	180	0.973
74	40403	181	0.973
74	40763	182	0.973
74	41124	183	0.973
74	41485	184	0.973
74	41846	185	0.973
74	42207	186	0.973
74	42568	187	0.973
74	43348	188	0.973
74	44533	189	0.973
74	45718	190	0.973
74	46587	191	0.973
74	47496	192	0.973
74	48084	193	0.973
74	48779	194	0.973
74	49262	195	0.973
74	49950	196	0.973
74	50331	197	0.973
74	50712	198	0.973
74	51195	199	0.973
74	51576	200	0.973
75	33444	161	1321.6250872791
75	33784	162	1317.8261711914
75	34125	163	1316.5146862035
75	34466	164	1315.2084984696
75	34807	165	1313.8979769512
75	35148	166	1312.5909474955
75	35489	167	1311.2792253962
75	35830	168	1309.9667820501
75	36171	169	1308.6690893267
75	36512	170	1307.3694774276
75	36853	171	1306.0665897581
75	37213	172	1304.7648060876
75	37574	173	1300.9174952612
75	37936	174	1300.1842586711
75	38297	175	1299.4522136665
75	38658	176	1298.7162781273
75	39019	177	1297.9830451551
75	39380	178	1297.2469840311
75	39721	179	1296.4976247116
75	40062	180	1299.415513036
75	40403	181	1301.4270611452
75	40763	182	1304.2740215531
75	41124	183	1307.8636480026
75	41485	184	1324.5362228633
75	41846	185	1330.8799791961
75	42207	186	1338.1371993273
75	42568	187	1354.7969159201
75	43348	188	1363.8736205491
75	44533	189	1372.9718070323
75	45718	190	1393.7115588971
75	46587	191	1401.970305989
75	47496	192	1410.2219675119
75	48084	193	1418.478206042
75	48779	194	1426.7383565868
75	49262	195	1457.9791007505
75	49950	196	1466.3489753109
75	50331	197	1474.7332153785
75	50712	198	1483.1026879759
75	51195	199	1500.1562162378
75	51576	200	1510.1651935469
76	33444	161	1614.094344316
76	33784	162	1620.0415490223
76	34125	163	1622.0952528172
76	34466	164	1624.1406614422
76	34807	165	1626.1928565038
76	35148	166	1628.2395832128
76	35489	167	1630.2936583093
76	35830	168	1632.3488628335
76	36171	169	1634.3809688012
76	36512	170	1636.4160800786
76	36853	171	1638.4563210083
76	37213	172	1640.4948331445
76	37574	173	1646.5114624209
76	37936	174	1647.659710921
76	38297	175	1648.8060933983
76	38658	176	1649.9585684527
76	39019	177	1651.1068112871
76	39380	178	1652.2594830073
76	39721	179	1653.4329797016
76	40062	180	1666.7718659146
76	40403	181	1668.1074288517
76	40763	182	1669.9976619447
76	41124	183	1672.3809865205
76	41485	184	1683.4440549949
76	41846	185	1687.6589818909
76	42207	186	1692.4808336008
76	42568	187	1703.5458752651
76	43348	188	1709.5747149626
76	44533	189	1715.6178231265
76	45718	190	1729.3935279457
76	46587	191	1734.8807392029
76	47496	192	1740.3632427225
76	48084	193	1745.848787261
76	48779	194	1751.3369309892
76	49262	195	1772.0859298989
76	49950	196	1777.6478616766
76	50331	197	1783.2193395915
76	50712	198	1788.7810042575
76	51195	199	1800.1058685201
76	51576	200	1806.7542726281
77	33784	162	2.7918094726476
77	34125	163	2.8754121673932
77	34466	164	2.8871306225202
77	34807	165	2.8289945958169
77	35148	166	2.8278467283315
77	35489	167	2.8532883831543
77	35830	168	2.8209226377342
77	36171	169	2.8104443664137
77	36512	170	2.8318391896701
77	36853	171	2.7751288855482
77	37213	172	2.805577243493
77	37574	173	2.7727480900973
77	37936	174	2.8091857755869
77	38297	175	2.7980528513352
77	38658	176	2.8758840637524
77	39019	177	2.8908774382561
77	39380	178	2.8083956864137
77	39721	179	2.8940256918115
77	40062	180	3.6839937859155
77	40403	181	5.6855741454624
77	40763	182	7.5554093226568
77	41124	183	9.3801181026465
77	41485	184	11.299127777506
77	41846	185	13.01542178671
77	42207	186	14.364439364819
77	42568	187	14.349343483854
77	43348	188	14.448685596821
77	44533	189	14.423526591634
77	45718	190	14.338737837382
77	46587	191	14.436120919335
77	47496	192	14.370308090885
77	48084	193	14.352923037229
77	48779	194	14.410647523325
77	49262	195	14.436214902816
77	49950	196	14.337922312297
77	50331	197	14.368789103898
77	50712	198	14.443436816964
77	51195	199	14.417649821277
77	51576	200	14.355572186656
78	34125	163	0.083602694745641
78	34466	164	0.011718455126974
78	34807	165	-0.058136026703287
78	35148	166	-0.0011478674854151
78	35489	167	0.025441654822789
78	35830	168	-0.032365745420102
78	36171	169	-0.010478271320462
78	36512	170	0.021394823256414
78	36853	171	-0.056710304121952
78	37213	172	0.030448357944842
78	37574	173	-0.032829153395724
78	37936	174	0.036437685489655
78	38297	175	-0.011132924251724
78	38658	176	0.077831212417223
78	39019	177	0.014993374503683
78	39380	178	-0.082481751842424
78	39721	179	0.085630005397834
78	40062	180	0.78996809410397
78	40403	181	2.0015803595469
78	40763	182	1.8698351771943
78	41124	183	1.8247087799897
78	41485	184	1.9190096748597
78	41846	185	1.7162940092036
78	42207	186	1.3490175781094
78	42568	187	-0.015095880965236
78	43348	188	0.099342112967278
78	44533	189	-0.025159005187453
78	45718	190	-0.084788754251784
78	46587	191	0.097383081952575
78	47496	192	-0.065812828449998
78	48084	193	-0.017385053655598
78	48779	194	0.057724486095831
78	49262	195	0.025567379491402
78	49950	196	-0.098292590519412
78	50331	197	0.030866791601293
78	50712	198	0.074647713066078
78	51195	199	-0.025786995687522
78	51576	200	-0.062077634620946
79	34125	163	1.3088406102112
79	34466	164	1.2596520310078
79	34807	165	1.2089258253372
79	35148	166	1.2477220506969
79	35489	167	1.2672832958129
79	35830	168	1.226151404833
79	36171	169	1.2405294029098
79	36512	170	1.2633071863923
79	36853	171	1.207918363306
79	37213	172	1.2679685675727
79	37574	173	1.2237891315022
79	37936	174	1.2722318618346
79	38297	175	1.2394944699763
79	38658	176	1.3048738183544
79	39019	177	1.2621336667572
79	39380	178	1.1916976291206
79	39721	179	1.3115704520913
79	40062	180	1.9937019118742
79	40403	181	4.1438626380203
79	40763	182	4.9190116565322
79	41124	183	5.7636915922548
79	41485	184	7.0139679302685
79	41846	185	7.3250714957558
79	42207	186	6.746813259934
79	42568	187	2.0229488837182
79	43348	188	2.4315762111264
79	44533	189	1.9955325335353
79	45718	190	1.7810379150023
79	46587	191	2.4231272858899
79	47496	192	1.8494368295685
79	48084	193	2.0153944782047
79	48779	194	2.282099009126
79	49262	195	2.1732834471959
79	49950	196	1.734307087087
79	50331	197	2.1840904693654
79	50712	198	2.3449358287953
79	51195	199	1.9927639343421
79	51576	200	1.8610398418069
80	36853	171	1520.2916553611
80	37213	172	1512.9799537029
80	37574	173	1506.6999206709
80	37936	174	1500.5172289633
80	38297	175	1494.6261964678
80	38658	176	1489.2605579676
80	39019	177	1483.8910797981
80	39380	178	1479.3807762334
80	39721	179	1475.0001833124
80	40062	180	1470.9537629052
80	40403	181	1467.4541723759
80	40763	182	1463.9533332498
80	41124	183	1468.6858219309
80	41485	184	1472.1608676895
80	41846	185	1475.7001667929
80	42207	186	1480.056977275
80	42568	187	1484.4133615312
80	43348	188	1489.353166431
80	44533	189	1494.6990062467
80	45718	190	1500.1285610693
80	46587	191	1506.2650266626
80	47496	192	1512.419052183
80	48084	193	1519.1765921995
80	48779	194	1530.0619172136
80	49262	195	1540.3914883389
80	49950	196	1545.5495799674
80	50331	197	1550.718640879
80	50712	198	1562.8094632076
80	51195	199	1567.3784414196
80	51576	200	1576.0373281299
81	36853	171	2089.5162429247
81	37213	172	2101.7125253587
81	37574	173	2114.4520782578
81	37936	174	2127.2470864917
81	38297	175	2140.1528492485
81	38658	176	2153.2916299654
81	39019	177	2166.439812839
81	39380	178	2179.8872380153
81	39721	179	2193.3994345622
81	40062	180	2207.0074884196
81	40403	181	2220.7750667289
81	40763	182	2234.5475570852
81	41124	183	2228.9030347447
81	41485	184	2215.2289935169
81	41846	185	2201.6006966225
81	42207	186	2188.1718953676
81	42568	187	2174.7444078496
81	43348	188	2161.5363995975
81	44533	189	2148.4477533569
81	45718	190	2135.4151341232
81	46587	191	2122.7167100932
81	47496	192	2109.9819486314
81	48084	193	2097.6044757841
81	48779	194	2079.7193054621
81	49262	195	2063.6481084761
81	49950	196	2055.6617981512
81	50331	197	2047.6585040064
81	50712	198	2029.2246840271
81	51195	199	2022.3042228937
81	51576	200	2009.0575126071
82	37213	172	14.671149258892
82	37574	173	14.677586722035
82	37936	174	14.592625507411
82	38297	175	14.644774450517
82	38658	176	14.674295731358
82	39019	177	14.652812526285
82	39380	178	14.568147624052
82	39721	179	14.653421675208
82	40062	180	14.591871952481
82	40403	181	14.607029854452
82	40763	182	14.608733414331
82	41124	183	14.55768130913
82	41485	184	14.683156286342
82	41846	185	14.56177393431
82	42207	186	14.605425543956
82	42568	187	14.638878142055
82	43348	188	14.587272184874
82	44533	189	14.620725749399
82	45718	190	14.68083075696
82	46587	191	14.558923726381
82	47496	192	14.65247015017
82	48084	193	14.593581267545
82	48779	194	14.65056375536
82	49262	195	14.590230755272
82	49950	196	14.627801950296
82	50331	197	14.581837063384
82	50712	198	14.570108326677
82	51195	199	14.677577013579
82	51576	200	14.589726027291
83	37574	173	0.0064374631433743
83	37936	174	-0.084961214624345
83	38297	175	0.052148943105712
83	38658	176	0.029521280841436
83	39019	177	-0.021483205072581
83	39380	178	-0.084664902233053
83	39721	179	0.085274051155428
83	40062	180	-0.061549722726921
83	40403	181	0.015157901970669
83	40763	182	0.0017035598796795
83	41124	183	-0.051052105200943
83	41485	184	0.12547497721156
83	41846	185	-0.12138235203223
83	42207	186	0.043651609646622
83	42568	187	0.033452598098666
83	43348	188	-0.051605957180728
83	44533	189	0.033453564525116
83	45718	190	0.060105007560924
83	46587	191	-0.12190703057917
83	47496	192	0.093546423788649
83	48084	193	-0.058888882624451
83	48779	194	0.056982487814967
83	49262	195	-0.060333000088576
83	49950	196	0.037571195024066
83	50331	197	-0.04596488691168
83	50712	198	-0.011728736707008
83	51195	199	0.10746868690243
83	51576	200	-0.087850986288394
84	37574	173	2.132921442294
84	37936	174	1.8022149362794
84	38297	175	2.2906666951726
84	38658	176	2.214197180959
84	39019	177	2.0316142444916
84	39380	178	1.8011335187535
84	39721	179	2.4086872647145
84	40062	180	1.8844793613017
84	40403	181	2.1559145173299
84	40763	182	2.1087348996501
84	41124	183	1.9181542035085
84	41485	184	2.5547623981332
84	41846	185	1.6717256251404
84	42207	186	2.256031627084
84	42568	187	2.2239976958748
84	43348	188	1.9190119902932
84	44533	189	2.2219023588338
84	45718	190	2.3231567689762
84	46587	191	1.6696631075758
84	47496	192	2.4377769661003
84	48084	193	1.8939956557137
84	48779	194	2.3084291788452
84	49262	195	1.8886059962537
84	49950	196	2.2372360624351
84	50331	197	1.9383209763871
84	50712	198	2.0574112021667
84	51195	199	2.4902977290306
84	51576	200	1.7918025604871
85	40403	181	1360.6977171044
85	40763	182	1365.9079149469
85	41124	183	1371.1247369461
85	41485	184	1376.3457191766
85	41846	185	1381.5525175357
85	42207	186	1386.7669810889
85	42568	187	1391.9872753915
85	43348	188	1397.2064753164
85	44533	189	1402.427591881
85	45718	190	1407.6516741156
85	46587	191	1412.8800301152
85	47496	192	1418.101605794
85	48084	193	1423.325650938
85	48779	194	1428.4575192447
85	49262	195	1432.1791326761
85	49950	196	1455.7205639538
85	50331	197	1461.384617881
85	50712	198	1467.1949275452
85	51195	199	1473.0195463165
85	51576	200	1478.8502055053
86	40403	181	1864.1623856555
86	40763	182	1856.8095479911
86	41124	183	1849.4473620543
86	41485	184	1842.0793050343
86	41846	185	1834.7312648557
86	42207	186	1827.3724072513
86	42568	187	1820.0053210624
86	43348	188	1812.6397793026
86	44533	189	1805.271532705
86	45718	190	1797.8991008363
86	46587	191	1790.5206376612
86	47496	192	1783.1517431433
86	48084	193	1775.7793636184
86	48779	194	1768.537067699
86	49262	195	1763.2849793451
86	49950	196	1770.5850916857
86	50331	197	1774.3489571177
86	50712	198	1778.2100121103
86	51195	199	1782.0805757613
86	51576	200	1785.9551533781
87	40763	182	9.9942815392929
87	41124	183	10.058187372265
87	41485	184	9.975569454662
87	41846	185	9.9454278333717
87	42207	186	9.992088506557
87	42568	187	9.9714015254936
87	43348	188	10.053866637179
87	44533	189	9.929585715034
87	45718	190	9.9403128918493
87	46587	191	10.001691923095
87	47496	192	9.99374189683
87	48084	193	10.036008842294
87	48779	194	8.8891244791049
87	49262	195	7.2291244791049
87	49950	196	8.9025439034771
87	50331	197	10.006539641453
87	50712	198	10.023261913075
87	51195	199	10.041959700079
87	51576	200	9.9993025931622
88	41124	183	0.063905832972377
88	41485	184	-0.082617917603347
88	41846	185	-0.030141621290241
88	42207	186	0.046660673185251
88	42568	187	-0.020686981063335
88	43348	188	0.082465111685451
88	44533	189	-0.12428092214512
88	45718	190	0.010727176815273
88	46587	191	0.061379031245597
88	47496	192	-0.0079500262648811
88	48084	193	0.042266945464071
88	48779	194	-1.1468843631892
88	49262	195	-1.66
88	49950	196	1.6734194243723
88	50331	197	1.1039957379762
88	50712	198	0.016722271621692
88	51195	199	0.018697787004058
88	51576	200	-0.042657106916886
89	41124	183	1.8441170445058
89	41485	184	1.4843021964797
89	41846	185	1.6083972744872
89	42207	186	1.7965414023786
89	42568	187	1.6328959406583
89	43348	188	1.8886897739976
89	44533	189	1.3820363710438
89	45718	190	1.7059534689845
89	46587	191	1.8328558885066
89	47496	192	1.6651560896033
89	48084	193	1.7897476179351
89	48779	194	0.973
89	49262	195	0.973
89	49950	196	5.1949820888256
89	50331	197	4.3476453932474
89	50712	198	1.7269416300121
89	51195	199	1.7332215031807
89	51576	200	1.5819294526689
90	46587	191	2223.7982258364
90	47496	192	2216.3440432
90	48084	193	2208.8976428439
90	48779	194	2201.4418534297
90	49262	195	2193.9850264785
90	49950	196	2177.0448621594
90	50331	197	2168.0726800175
90	50712	198	2158.0238938099
90	51195	199	2147.8814055851
90	51576	200	2132.7930291922
91	46587	191	2133.6659794519
91	47496	192	2140.6067485994
91	48084	193	2147.540271478
91	48779	194	2154.482536735
91	49262	195	2161.4257680677
91	49950	196	2166.6482784347
91	50331	197	2160.501863531
91	50712	198	2153.6179184291
91	51195	199	2146.6697825354
91	51576	200	2136.3318903724
92	47496	192	12.280600491996
92	48084	193	12.271031437974
92	48779	194	12.301260253637
92	49262	195	12.299382995394
92	49950	196	12.460768582505
92	50331	197	14.479328144785
92	50712	198	15.332881061733
92	51195	199	15.378899028609
92	51576	200	15.355900259223
93	48084	193	-0.0095690540224318
93	48779	194	0.03022881566314
93	49262	195	-0.001877258243038
93	49950	196	0.16138558711158
93	50331	197	2.0185595622798
93	50712	198	0.85355291694777
93	51195	199	0.046017966875805
93	51576	200	-0.02299876938574
94	48084	193	1.8443488890286
94	48779	194	1.9649869086561
94	49262	195	1.8696366990488
94	49950	196	2.3744896975451
94	50331	197	9.1327086558844
94	50712	198	5.3367275087227
94	51195	199	2.3584422352172
94	51576	200	2.1001572901588

